2021-11-10T17:27:18,723  INFO Gbl:63 JVM: 16.0.2; Oracle Corporation; mixed mode; 64-bit
2021-11-10T17:27:18,724  INFO Gbl:67 OS: Linux; 5.4.0-89-generic; amd64
2021-11-10T17:27:18,724  INFO Gbl:70 CPU cores: 8
2021-11-10T17:27:18,727  INFO Gbl:71 max. Memory: 7952.0MB (8338276352B)
2021-11-10T17:27:18,727  INFO Gbl:109 MATSim-Build: r39825bc6085a744848224c8d615c2dec92341cf1 (2021-09-17 10:13:01)
2021-11-10T17:27:18,730  INFO ControlerListenerManagerImpl:107 calling notifyStartup on org.matsim.guice.DependencyGraphControlerListener
2021-11-10T17:27:18,733  INFO MemoryObserver:41 used RAM: 112 MB  free: 167 MB  total: 280 MB
2021-11-10T17:27:18,830  INFO ControlerListenerManagerImpl:107 calling notifyStartup on org.matsim.counts.CountsControlerListener
2021-11-10T17:27:18,830  INFO ControlerListenerManagerImpl:107 calling notifyStartup on org.matsim.analysis.ModeStatsControlerListener
2021-11-10T17:27:18,830  INFO ControlerListenerManagerImpl:107 calling notifyStartup on org.matsim.analysis.ScoreStatsControlerListener
2021-11-10T17:27:18,831  INFO ControlerListenerManagerImpl:110 all ControlerStartupListeners called.
2021-11-10T17:27:18,831  INFO ControlerUtils:79 config dump before iterations start
2021-11-10T17:27:18,844  INFO ControlerUtils:83 

<?xml version="1.0" encoding="UTF-8"?>
<!DOCTYPE config SYSTEM "http://www.matsim.org/files/dtd/config_v2.dtd">
<config>
	<module name="JDEQSim" >
		<param name="carSize" value="7.5" />
		<param name="endTime" value="undefined" />
		<param name="flowCapacityFactor" value="1.0" />
		<param name="gapTravelSpeed" value="15.0" />
		<param name="minimumInFlowCapacity" value="1800.0" />
		<param name="squeezeTime" value="1800.0" />
		<param name="storageCapacityFactor" value="1.0" />
	</module>
	<module name="TimeAllocationMutator" >
		<!-- Default:true; Defines whether time mutation changes an activity's duration. -->
		<param name="mutationAffectsDuration" value="true" />
		<!-- Default:1800.0; Defines how many seconds a time mutation can maximally shift a time. -->
		<param name="mutationRange" value="900.0" />
	</module>
	<module name="changeMode" >
		<!-- Defines whether car availability is considered be considered or not. An agent has no car only if it has no license, or never access to a car. Default: true -->
		<param name="ignoreCarAvailability" value="true" />
		<!-- Defines the mode switch behavior. Possible values [fromAllModesToSpecifiedModes, fromSpecifiedModesToSpecifiedModes] Default: fromSpecifiedModesToSpecifiedModes. -->
		<param name="modeSwitchBehavior" value="fromSpecifiedModesToSpecifiedModes" />
		<!-- Defines all the modes available, including chain-based modes, seperated by commas -->
		<param name="modes" value="car,pt" />
	</module>
	<module name="controler" >
		<!-- Compression algorithm to use when writing out data to files. Possible values: [none, gzip, lz4, zst] -->
		<param name="compressionType" value="gzip" />
		<!-- Sets whether graphs showing some analyses should automatically be generated during the simulation. The generation of graphs usually takes a small amount of time that does not have any weight in big simulations, but add a significant overhead in smaller runs or in test cases where the graphical output is not even requested. -->
		<param name="createGraphs" value="true" />
		<!-- true if at the end of a run, plans, network, config etc should be dumped to a file -->
		<param name="dumpDataAtEnd" value="true" />
		<!-- Default=false. If enabled, the router takes travel times needed for turning moves into account. Cannot be used if the (Fast)AStarLandmarks routing or TravelTimeCalculator.separateModes is enabled. -->
		<param name="enableLinkToLinkRouting" value="false" />
		<!-- Default=xml; Specifies the file format for writing events. Currently supported: [xml, pb, json]
		Multiple values can be specified separated by commas (','). -->
		<param name="eventsFileFormat" value="xml" />
		<!-- Default=0. First Iteration of a simulation. -->
		<param name="firstIteration" value="0" />
		<!-- Default=1000. Last Iteration of a simulation. -->
		<param name="lastIteration" value="10" />
		<!-- Defines which mobility simulation will be used. Currently supported: qsim JDEQSim hermes 
		Depending on the chosen mobsim, you'll have to add additional config modules to configure the corresponding mobsim.
		For 'qsim', add a module 'qsim' to the config. -->
		<param name="mobsim" value="qsim" />
		<param name="outputDirectory" value="output/robotaxi" />
		<!-- Possible values: failIfDirectoryExists, overwriteExistingFiles, deleteDirectoryIfExists -->
		<param name="overwriteFiles" value="deleteDirectoryIfExists" />
		<!-- The type of routing (least cost path) algorithm used, may have the values: [Dijkstra, AStarLandmarks, FastDijkstra, FastAStarLandmarks, SpeedyALT] -->
		<param name="routingAlgorithmType" value="AStarLandmarks" />
		<!-- An identifier for the current run which is used as prefix for output files and mentioned in output xml files etc. -->
		<param name="runId" value="null" />
		<!-- Comma-separated list of visualizer output file formats. `transims', `googleearth', and `otfvis'. -->
		<param name="snapshotFormat" value="" />
		<!-- iterationNumber % writeEventsInterval == 0 defines in which iterations events are written to a file. `0' disables events writing completely. -->
		<param name="writeEventsInterval" value="10" />
		<!-- iterationNumber % writePlansInterval == 0 defines (hopefully) in which iterations plans are written to a file. `0' disables plans writing completely.  Some plans in early iterations are always written -->
		<param name="writePlansInterval" value="10" />
		<!-- iterationNumber % writeSnapshotsInterval == 0 defines in which iterations snapshots are written to a file. `0' disables snapshots writing completely -->
		<param name="writeSnapshotsInterval" value="1" />
		<!-- iterationNumber % writeEventsInterval == 0 defines in which iterations trips CSV are written to a file. `0' disables trips writing completely. -->
		<param name="writeTripsInterval" value="10" />
	</module>
	<module name="counts" >
		<!-- Transport modes that will be respected for the counts comparison. 'car' is default, which includes also bussed from the pt simulation module. Use this parameter in combination with 'filterModes' = true! -->
		<param name="analyzedModes" value="car" />
		<!-- Specifies over how many iterations the link volumes should be averaged that are used for the counts comparison. Use 1 or 0 to only use the link volumes of a single iteration. This values cannot be larger than the value specified for writeCountsInterval -->
		<param name="averageCountsOverIterations" value="5" />
		<!-- factor by which to re-scale the simulated values.  necessary when simulation runs with something different from 100%.  needs to be adapted manually -->
		<param name="countsScaleFactor" value="1.0" />
		<!-- distance to distanceFilterCenterNode to include counting stations. The unit of distance is the Euclidean distance implied by the coordinate system -->
		<param name="distanceFilter" value="null" />
		<!-- node id for center node of distance filter -->
		<param name="distanceFilterCenterNode" value="null" />
		<!-- If true, link counts from legs performed on modes not included in the 'analyzedModes' parameter are ignored. -->
		<param name="filterModes" value="false" />
		<!-- The Coordinates Reference System in which the coordinates are expressed in the input file. At import, the coordinates will be converted to the coordinate system defined in "global", and willbe converted back at export. If not specified, no conversion happens. -->
		<param name="inputCRS" value="null" />
		<!-- input file name to counts package -->
		<param name="inputCountsFile" value="null" />
		<!-- possible values: `html', `kml', `txt', `all' -->
		<param name="outputformat" value="txt" />
		<!-- Specifies how often the counts comparison should be calculated and written. -->
		<param name="writeCountsInterval" value="10" />
	</module>
	<module name="dvrp" >
		<param name="initialTravelTimesFile" value="null" />
		<!-- Mode of which the network will be used for throwing events and hence calculating travel times. Default is car. -->
		<param name="mobsimMode" value="car" />
		<!-- Set of modes of which the network will be used for DVRP travel time estimation and routing DVRP vehicles. Each specific DVRP mode may use a subnetwork of this network for routing vehicles (e.g. DRT buses travelling only along a specified links or serving a limited area). Default is "car" (i.e. single-element set of modes), i.e. the car network is used. Empty value "" (i.e. empty set of modes) means no network filtering, i.e. the original scenario.network is used -->
		<param name="networkModes" value="car" />
		<!-- Used for OFFLINE estimation of travel times for VrpOptimizer by means of the exponential moving average. The weighting decrease, alpha, must be in (0,1]. We suggest small values of alpha, e.g. 0.05. The averaging starts from the initial travel time estimates. If not provided, the free-speed TTs is used as the initial estimates -->
		<param name="travelTimeEstimationAlpha" value="0.05" />
		<!-- Used for ONLINE estimation of travel times for VrpOptimizer by combining WithinDayTravelTime and DvrpOfflineTravelTimeEstimator. The beta coefficient is provided in seconds and should be either 0 (no online estimation) or positive (mixed online-offline estimation). For 'beta = 0', only the offline estimate is used: 'onlineTT(t) = offlineTT(t)', where 'offlineTT(t)' in the offline estimate for TT at time 't', For 'beta > 0', estimating future TTs at time 't', uses the currently observed TT to correct the offline estimates is made: where 'currentTT' is the currently observed TT, and 'correction = min(1, max(0, 1 - (time - currentTime) / beta))' The rule is that correction decreases linearly from 1 (when 'time = currentTime') to 0 (when 'time = currentTime + beta' For 'time > currentTime + beta' correction is 0, whereas if 'time < currentTime' it is 1. If beta is sufficiently large, 'beta >> 0', only the currently observed TT is used. -->
		<param name="travelTimeEstimationBeta" value="0.0" />
		<parameterset type="travelTimeMatrix" >
			<!-- size of square cells (meters) used for computing travel time matrix. Default value is 200 m -->
			<param name="cellSize" value="200" />
		</parameterset>
	</module>
	<module name="facilities" >
		<!-- This defines how facilities should be created. Possible values: none fromFile setInScenario onePerActivityLinkInPlansFile onePerActivityLinkInPlansFileExceptWhenCoordinatesAreGiven onePerActivityLocationInPlansFile  -->
		<param name="facilitiesSource" value="none" />
		<!-- A prefix to be used for auto-generated IDs. -->
		<param name="idPrefix" value="f_auto_" />
		<!-- The Coordinates Reference System in which the coordinates are expressed in the input file. At import, the coordinates will be converted to the coordinate system defined in "global", and willbe converted back at export. If not specified, no conversion happens. -->
		<param name="inputCRS" value="null" />
		<param name="inputFacilitiesFile" value="null" />
		<param name="inputFacilityAttributesFile" value="null" />
		<param name="insistingOnUsingDeprecatedFacilitiesAttributeFile" value="false" />
	</module>
	<module name="global" >
		<param name="coordinateSystem" value="Atlantis" />
		<param name="defaultDelimiter" value=";" />
		<param name="insistingOnDeprecatedConfigVersion" value="true" />
		<!-- "global" number of threads.  This number is used, e.g., for replanning, but NOT in QSim.  This can typically be set to as many cores as you have available, or possibly even slightly more. -->
		<param name="numberOfThreads" value="2" />
		<param name="randomSeed" value="4711" />
	</module>
	<module name="hermes" >
		<!-- Simulation End Time -->
		<param name="endTime" value="30:00:00" />
		<param name="flowCapacityFactor" value="1.0" />
		<param name="mainMode" value="car" />
		<param name="storageCapacityFactor" value="1.0" />
		<!-- time in seconds.  Time after which the frontmost vehicle on a link is called `stuck' if it does not move. Set to Integer.MAX_VALUE to disable this behavior -->
		<param name="stuckTime" value="10" />
		<!-- treats PT as deterministic. PT vehicles will run with a steady speed. Should be used with separate network layers for PT and other network modes. -->
		<param name="useDeterministicPt" value="false" />
	</module>
	<module name="households" >
		<param name="inputFile" value="null" />
		<param name="inputHouseholdAttributesFile" value="null" />
		<param name="insistingOnUsingDeprecatedHouseholdsAttributeFile" value="false" />
	</module>
	<module name="linkStats" >
		<!-- Specifies over how many iterations the link volumes should be averaged that are used for the link statistics. Use 1 or 0 to only use the link volumes of a single iteration. This values cannot be larger than the value specified for writeLinkStatsInterval -->
		<param name="averageLinkStatsOverIterations" value="5" />
		<!-- Specifies how often the link stats should be calculated and written. Use 0 to disable the generation of link stats. -->
		<param name="writeLinkStatsInterval" value="10" />
	</module>
	<module name="multiModeTaxi" >
		<parameterset type="taxi" >
			<!-- Specifies whether the simulation should interrupt if not all requests were performed when an interation ends. Otherwise, a warning is given. True by default. -->
			<param name="breakIfNotAllRequestsServed" value="false" />
			<!-- If true, the startLink is changed to last link in the current schedule, so the taxi starts the next day at the link where it stopped operating the day before. False by default. -->
			<param name="changeStartLinkToLastLinkInSchedule" value="true" />
			<!-- If false, the drop-off location remains unknown to the optimizer and scheduler until the end of pickup. False by default. -->
			<param name="destinationKnown" value="false" />
			<!-- If true, detailed hourly taxi stats are dumped after each iteration. False by default. -->
			<param name="detailedStats" value="true" />
			<!-- Dropoff duration. Must be positive. -->
			<param name="dropoffDuration" value="60.0" />
			<!-- Mode which will be handled by PassengerEngine and VrpOptimizer (passengers'/customers' perspective) -->
			<param name="mode" value="taxi" />
			<!-- Number of threads used for parallel computation of paths (occupied drive tasks). 4-6 threads is usually enough. It's recommended to specify a higher number than that if possible - of course, threads will probably be not 100% busy. Default value is the number of cores available to JVM -->
			<param name="numberOfThreads" value="8" />
			<!-- If true, vehicles are (GPS-like) monitored while moving. This helps in getting more accurate estimates on the time of arrival. Online tracking is necessary for vehicle diversion. False by default. -->
			<param name="onlineVehicleTracker" value="false" />
			<!-- Pickup duration. Must be positive. -->
			<param name="pickupDuration" value="120.0" />
			<!-- An XML file specifying the taxi fleet. The file format according to dvrp_vehicles_v1.dtd. If not provided, the vehicle specifications will be created from matsim vehicle file or provided via a custom binding. See FleetModule. -->
			<param name="taxisFile" value="taxis_5000.xml" />
			<!-- If true, writes time profiles of vehicle statuses (i.e. current task type) and the number of unplanned requests are written to a text file (taxi_status_time_profiles) and saved as plots. False by default. -->
			<param name="timeProfiles" value="true" />
			<!-- Limit the operation of vehicles to links (of the 'dvrp_routing' network) with 'allowedModes' containing this 'mode'. For backward compatibility, the value is set to false by default -- this means that the vehicles are allowed to operate on all links of the 'dvrp_routing' network. The 'dvrp_routing' is defined by DvrpConfigGroup.networkModes) -->
			<param name="useModeFilteredSubnetwork" value="false" />
			<!-- If true, vehicles can be diverted during empty trips. Requires online tracking. False by default. -->
			<param name="vehicleDiversion" value="false" />
			<parameterset type="RuleBasedTaxiOptimizer" >
				<!-- The side length of square zones used in zonal registers of idle vehicles and open requests. The default value is 1000 m. This value is good for urban areas. For large areas with sparsely distributed taxis and low taxi demand, you may consider using a bigger cell size. On the other hand, if 'nearestRequestsLimit' or 'nearestVehiclesLimit' are very low, a smaller cell size may work better. -->
				<param name="cellSize" value="1000.0" />
				<!-- Optimisation goal, one of: MIN_WAIT_TIME (aka 'nearest idle taxi', a request-initiated dispatch), MIN_PICKUP_TIME (aka 'nearest open request', a vehicle-initiated dispatch), DEMAND_SUPPLY_EQUIL (aka 'demand-supply balancing' or 'nearest idle taxi/nearest open request'; switches between two modes depending on the demand-supply balance). The default and recommended value is DEMAND_SUPPLY_EQUIL. See: M. Maciejewski, J. Bischoff, K. Nagel: An assignment-based approach to efficient real-time city-scale taxi dispatching. IEEE Intelligent Systems, 2016. -->
				<param name="goal" value="DEMAND_SUPPLY_EQUIL" />
				<!-- Limits the number of open requests considered during a vehicle-initiated dispatch to 'nearestRequestsLimit' nearest to a given location using pre-calculated distances between zone centroids. Used to speed up computations. Values 20 to 40 make a good trade-off between computational speed and quality of results. To turn off this feature - specify a sufficiently big number (not recommended). The default value is 30. -->
				<param name="nearestRequestsLimit" value="30" />
				<!-- Limits the number of idle vehicles considered during a request-initiated dispatch to 'nearestVehiclesLimit' nearest to a given location using pre-calculated distances between zone centroids. Used to speed up computations. Values 20 to 40 make a good trade-off between computational speed and quality of results. To turn off this feature - specify a sufficiently big number (not recommended). The default value is 30. -->
				<param name="nearestVehiclesLimit" value="30" />
				<!-- Specifies how often the reoptimization algorithm is executed. Must be a positive integer value. Smaller values mean lower reaction time. However, algorithms that find more than 1 taxi-request matching in each run, such as AssignmentTaxiOptimizer, may produce better results if new requests are buffered over a longer period, e.g. 10 or 30 seconds. Therefore, the default value is algorithm dependent. -->
				<param name="reoptimizationTimeStep" value="1" />
			</parameterset>
			<parameterset type="taxifare" >
				<!-- Basefare per trip (positive or zero value) -->
				<param name="basefare" value="0.5" />
				<!-- Daily subscription fee (positive or zero value) -->
				<param name="dailySubscriptionFee" value="0.0" />
				<!-- taxi fare per meter (positive or zero value) -->
				<param name="distanceFare_m" value="2.0E-4" />
				<!-- Minimum fare per trip (paid instead of the sum of base, time and distance fare if that sum would be lower than the minimum fare, positive or zero value). -->
				<param name="minFarePerTrip" value="2.0" />
				<!-- taxi fare per hour (positive or zero value) -->
				<param name="timeFare_h" value="3.6" />
			</parameterset>
		</parameterset>
	</module>
	<module name="network" >
		<!-- The Coordinates Reference System in which the coordinates are expressed in the input file. At import, the coordinates will be converted to the coordinate system defined in "global", and willbe converted back at export. If not specified, no conversion happens. -->
		<param name="inputCRS" value="null" />
		<param name="inputChangeEventsFile" value="null" />
		<param name="inputNetworkFile" value="network.xml.gz" />
		<param name="laneDefinitionsFile" value="null" />
		<param name="timeVariantNetwork" value="false" />
	</module>
	<module name="otfvis" >
		<!-- The (initial) size of the agents.  Only a range of numbers is allowed, otherwise otfvis aborts rather ungracefully, or displays no agents at all. -->
		<param name="agentSize" value="120.0" />
		<!-- coloring scheme for otfvis.  Currently (2012) allowed values: standard bvg bvg2 byId gtfs taxicab infection -->
		<param name="coloringScheme" value="taxicab" />
		<!-- If non-moving items (e.g. agents at activities, at bus stops, etc.) should be showed.  May affect all non-moving items. -->
		<param name="drawNonMovingItems" value="true" />
		<param name="drawTransitFacilities" value="true" />
		<param name="drawTransitFacilityIds" value="true" />
		<param name="leftMouseFunc" value="Zoom" />
		<!-- The (initial) width of the links of the network. Use positive floating point values. -->
		<param name="linkWidth" value="30.0" />
		<!-- Link width is proportional to `numberOfLanes' or to `capacity'. -->
		<param name="linkwidthIsProportionalTo" value="numberOfLanes" />
		<!-- URL to get WMS tiles from. For a local GeoServer instance, use http://localhost:8080/geoserver/wms?service=WMS& -->
		<param name="mapBaseURL" value="" />
		<!-- The WMS layer to display. For GeoServer and a layer called clipped in workspace mz, use mz:clipped -->
		<param name="mapLayer" value="" />
		<!-- Render everything on top of map tiles. Default: From tiles.openstreetmap.org -->
		<param name="mapOverlayMode" value="false" />
		<param name="middleMouseFunc" value="Pan" />
		<param name="rightMouseFunc" value="Select" />
		<param name="showTeleportation" value="false" />
	</module>
	<module name="parallelEventHandling" >
		<!-- Estimated number of events during mobsim run. An optional optimization hint for the framework. -->
		<param name="estimatedNumberOfEvents" value="null" />
		<!-- Size of the events Queue. Increase for very large scenarios -->
		<param name="eventsQueueSize" value="131072" />
		<!-- Number of threads for parallel events handler. _null_ means the framework decides by itself. 0 is currently not possible. -->
		<param name="numberOfThreads" value="null" />
		<!-- If enabled, each event handler is assigned to its own thread. Note that enabling this feature disabled the numberOfThreads option! This feature is still experimental! -->
		<param name="oneThreadPerHandler" value="false" />
		<!-- If enabled, it is ensured that all events that are created during a time step of the mobility simulation are processed before the next time step is simulated. E.g. neccessary when within-day replanning is used. -->
		<param name="synchronizeOnSimSteps" value="true" />
	</module>
	<module name="planCalcScore" >
		<!-- logit model scale parameter. default: 1.  Has name and default value for historical reasons (see Bryan Raney's phd thesis). -->
		<param name="BrainExpBeta" value="1.0" />
		<param name="PathSizeLogitBeta" value="1.0" />
		<!-- fraction of iterations at which MSA score averaging is started. The matsim theory department suggests to use this together with switching off choice set innovation (where a similar switch exists), but it has not been tested yet. -->
		<param name="fractionOfIterationsToStartScoreMSA" value="null" />
		<!-- new_score = (1-learningRate)*old_score + learningRate * score_from_mobsim.  learning rates close to zero emulate score averaging, but slow down initial convergence -->
		<param name="learningRate" value="1.0" />
		<!-- There used to be a plateau between duration=0 and duration=zeroUtilityDuration. This caused durations to evolve to zero once they were below zeroUtilityDuration, causing problems.  Only use this switch if you need to be backwards compatible with some old results.  (changed nov'13) -->
		<param name="usingOldScoringBelowZeroUtilityDuration" value="false" />
		<!-- write a plans file in each iteration directory which contains what each agent actually did, and the score it received. -->
		<param name="writeExperiencedPlans" value="false" />
		<parameterset type="scoringParameters" >
			<param name="earlyDeparture" value="-0.0" />
			<param name="lateArrival" value="-18.0" />
			<param name="marginalUtilityOfMoney" value="1.0" />
			<param name="performing" value="6.0" />
			<param name="subpopulation" value="null" />
			<param name="utilityOfLineSwitch" value="-1.0" />
			<param name="waiting" value="-0.0" />
			<param name="waitingPt" value="-6.0" />
			<parameterset type="activityParams" >
				<param name="activityType" value="dummy" />
				<param name="closingTime" value="undefined" />
				<param name="earliestEndTime" value="undefined" />
				<param name="latestStartTime" value="undefined" />
				<param name="minimalDuration" value="undefined" />
				<param name="openingTime" value="undefined" />
				<param name="priority" value="1.0" />
				<param name="scoringThisActivityAtAll" value="true" />
				<!-- typical duration of activity.  needs to be defined and non-zero.  in sec. -->
				<param name="typicalDuration" value="02:00:00" />
				<!-- method to compute score at typical duration.  Options: | uniform | relative | Use uniform for backwards compatibility (all activities same score; higher proba to drop long acts). -->
				<param name="typicalDurationScoreComputation" value="relative" />
			</parameterset>
			<parameterset type="activityParams" >
				<param name="activityType" value="car interaction" />
				<param name="closingTime" value="undefined" />
				<param name="earliestEndTime" value="undefined" />
				<param name="latestStartTime" value="undefined" />
				<param name="minimalDuration" value="undefined" />
				<param name="openingTime" value="undefined" />
				<param name="priority" value="1.0" />
				<param name="scoringThisActivityAtAll" value="false" />
				<param name="typicalDuration" value="undefined" />
				<param name="typicalDurationScoreComputation" value="relative" />
			</parameterset>
			<parameterset type="activityParams" >
				<param name="activityType" value="pt interaction" />
				<param name="closingTime" value="undefined" />
				<param name="earliestEndTime" value="undefined" />
				<param name="latestStartTime" value="undefined" />
				<param name="minimalDuration" value="undefined" />
				<param name="openingTime" value="undefined" />
				<param name="priority" value="1.0" />
				<param name="scoringThisActivityAtAll" value="false" />
				<param name="typicalDuration" value="undefined" />
				<param name="typicalDurationScoreComputation" value="relative" />
			</parameterset>
			<parameterset type="activityParams" >
				<param name="activityType" value="bike interaction" />
				<param name="closingTime" value="undefined" />
				<param name="earliestEndTime" value="undefined" />
				<param name="latestStartTime" value="undefined" />
				<param name="minimalDuration" value="undefined" />
				<param name="openingTime" value="undefined" />
				<param name="priority" value="1.0" />
				<param name="scoringThisActivityAtAll" value="false" />
				<param name="typicalDuration" value="undefined" />
				<param name="typicalDurationScoreComputation" value="relative" />
			</parameterset>
			<parameterset type="activityParams" >
				<param name="activityType" value="drt interaction" />
				<param name="closingTime" value="undefined" />
				<param name="earliestEndTime" value="undefined" />
				<param name="latestStartTime" value="undefined" />
				<param name="minimalDuration" value="undefined" />
				<param name="openingTime" value="undefined" />
				<param name="priority" value="1.0" />
				<param name="scoringThisActivityAtAll" value="false" />
				<param name="typicalDuration" value="undefined" />
				<param name="typicalDurationScoreComputation" value="relative" />
			</parameterset>
			<parameterset type="activityParams" >
				<param name="activityType" value="taxi interaction" />
				<param name="closingTime" value="undefined" />
				<param name="earliestEndTime" value="undefined" />
				<param name="latestStartTime" value="undefined" />
				<param name="minimalDuration" value="undefined" />
				<param name="openingTime" value="undefined" />
				<param name="priority" value="1.0" />
				<param name="scoringThisActivityAtAll" value="false" />
				<param name="typicalDuration" value="undefined" />
				<param name="typicalDurationScoreComputation" value="relative" />
			</parameterset>
			<parameterset type="activityParams" >
				<param name="activityType" value="other interaction" />
				<param name="closingTime" value="undefined" />
				<param name="earliestEndTime" value="undefined" />
				<param name="latestStartTime" value="undefined" />
				<param name="minimalDuration" value="undefined" />
				<param name="openingTime" value="undefined" />
				<param name="priority" value="1.0" />
				<param name="scoringThisActivityAtAll" value="false" />
				<param name="typicalDuration" value="undefined" />
				<param name="typicalDurationScoreComputation" value="relative" />
			</parameterset>
			<parameterset type="activityParams" >
				<param name="activityType" value="walk interaction" />
				<param name="closingTime" value="undefined" />
				<param name="earliestEndTime" value="undefined" />
				<param name="latestStartTime" value="undefined" />
				<param name="minimalDuration" value="undefined" />
				<param name="openingTime" value="undefined" />
				<param name="priority" value="1.0" />
				<param name="scoringThisActivityAtAll" value="false" />
				<param name="typicalDuration" value="undefined" />
				<param name="typicalDurationScoreComputation" value="relative" />
			</parameterset>
			<parameterset type="activityParams" >
				<param name="activityType" value="work" />
				<param name="closingTime" value="17:00:00" />
				<param name="earliestEndTime" value="undefined" />
				<param name="latestStartTime" value="09:00:00" />
				<param name="minimalDuration" value="undefined" />
				<param name="openingTime" value="06:00:00" />
				<param name="priority" value="1.0" />
				<param name="scoringThisActivityAtAll" value="true" />
				<param name="typicalDuration" value="08:00:00" />
				<param name="typicalDurationScoreComputation" value="relative" />
			</parameterset>
			<parameterset type="activityParams" >
				<param name="activityType" value="home" />
				<param name="closingTime" value="undefined" />
				<param name="earliestEndTime" value="undefined" />
				<param name="latestStartTime" value="undefined" />
				<param name="minimalDuration" value="undefined" />
				<param name="openingTime" value="undefined" />
				<param name="priority" value="1.0" />
				<param name="scoringThisActivityAtAll" value="true" />
				<param name="typicalDuration" value="12:00:00" />
				<param name="typicalDurationScoreComputation" value="relative" />
			</parameterset>
			<parameterset type="activityParams" >
				<param name="activityType" value="ride interaction" />
				<param name="closingTime" value="undefined" />
				<param name="earliestEndTime" value="undefined" />
				<param name="latestStartTime" value="undefined" />
				<param name="minimalDuration" value="undefined" />
				<param name="openingTime" value="undefined" />
				<param name="priority" value="1.0" />
				<param name="scoringThisActivityAtAll" value="false" />
				<param name="typicalDuration" value="undefined" />
				<param name="typicalDurationScoreComputation" value="relative" />
			</parameterset>
			<parameterset type="modeParams" >
				<!-- [utils] alternative-specific constant.  Normally per trip, but that is probably buggy for multi-leg trips. -->
				<param name="constant" value="0.0" />
				<!-- [unit_of_money/day] Fixed cost of mode, per day. -->
				<param name="dailyMonetaryConstant" value="0.0" />
				<!-- [utils] daily utility constant. default=0 to be backwards compatible -->
				<param name="dailyUtilityConstant" value="0.0" />
				<!-- [utils/m] utility of traveling (e.g. walking or driving) per m, normally negative.  this is on top of the time (dis)utility. -->
				<param name="marginalUtilityOfDistance_util_m" value="0.0" />
				<!-- [utils/hr] additional marginal utility of traveling.  normally negative.  this comes on top of the opportunity cost of time -->
				<param name="marginalUtilityOfTraveling_util_hr" value="-6.0" />
				<param name="mode" value="car" />
				<!-- [unit_of_money/m] conversion of distance into money. Normally negative. -->
				<param name="monetaryDistanceRate" value="0.0" />
			</parameterset>
			<parameterset type="modeParams" >
				<param name="constant" value="0.0" />
				<param name="dailyMonetaryConstant" value="0.0" />
				<param name="dailyUtilityConstant" value="0.0" />
				<param name="marginalUtilityOfDistance_util_m" value="0.0" />
				<param name="marginalUtilityOfTraveling_util_hr" value="-6.0" />
				<param name="mode" value="pt" />
				<param name="monetaryDistanceRate" value="0.0" />
			</parameterset>
			<parameterset type="modeParams" >
				<param name="constant" value="0.0" />
				<param name="dailyMonetaryConstant" value="0.0" />
				<param name="dailyUtilityConstant" value="0.0" />
				<param name="marginalUtilityOfDistance_util_m" value="0.0" />
				<param name="marginalUtilityOfTraveling_util_hr" value="-6.0" />
				<param name="mode" value="walk" />
				<param name="monetaryDistanceRate" value="0.0" />
			</parameterset>
			<parameterset type="modeParams" >
				<param name="constant" value="0.0" />
				<param name="dailyMonetaryConstant" value="0.0" />
				<param name="dailyUtilityConstant" value="0.0" />
				<param name="marginalUtilityOfDistance_util_m" value="0.0" />
				<param name="marginalUtilityOfTraveling_util_hr" value="-6.0" />
				<param name="mode" value="bike" />
				<param name="monetaryDistanceRate" value="0.0" />
			</parameterset>
			<parameterset type="modeParams" >
				<param name="constant" value="0.0" />
				<param name="dailyMonetaryConstant" value="0.0" />
				<param name="dailyUtilityConstant" value="0.0" />
				<param name="marginalUtilityOfDistance_util_m" value="0.0" />
				<param name="marginalUtilityOfTraveling_util_hr" value="-6.0" />
				<param name="mode" value="ride" />
				<param name="monetaryDistanceRate" value="0.0" />
			</parameterset>
			<parameterset type="modeParams" >
				<param name="constant" value="0.0" />
				<param name="dailyMonetaryConstant" value="0.0" />
				<param name="dailyUtilityConstant" value="0.0" />
				<param name="marginalUtilityOfDistance_util_m" value="0.0" />
				<param name="marginalUtilityOfTraveling_util_hr" value="-6.0" />
				<param name="mode" value="other" />
				<param name="monetaryDistanceRate" value="0.0" />
			</parameterset>
			<parameterset type="modeParams" >
				<param name="constant" value="0.0" />
				<param name="dailyMonetaryConstant" value="0.0" />
				<param name="dailyUtilityConstant" value="0.0" />
				<param name="marginalUtilityOfDistance_util_m" value="0.0" />
				<param name="marginalUtilityOfTraveling_util_hr" value="0.0" />
				<param name="mode" value="taxi" />
				<param name="monetaryDistanceRate" value="0.0" />
			</parameterset>
		</parameterset>
	</module>
	<module name="plans" >
		<!-- String: minOfDurationAndEndTime tryEndTimeThenDuration endTimeOnly. Anything besides minOfDurationAndEndTime will internally use a different (simpler) version of the TimeAllocationMutator. -->
		<param name="activityDurationInterpretation" value="tryEndTimeThenDuration" />
		<!-- Possible values: reject, useMainModeIdentifier -->
		<param name="handlingOfPlansWithoutRoutingMode" value="reject" />
		<!-- The Coordinates Reference System in which the coordinates are expressed in the input file. At import, the coordinates will be converted to the coordinate system defined in "global", and willbe converted back at export. If not specified, no conversion happens. -->
		<param name="inputCRS" value="null" />
		<param name="inputPersonAttributesFile" value="null" />
		<param name="inputPlansFile" value="cb-taxiplans.xml.gz" />
		<param name="insistingOnUsingDeprecatedPersonAttributeFile" value="false" />
		<!-- Defines how routes are stored in memory. Currently supported: LinkNetworkRoute, CompressedNetworkRoute. -->
		<param name="networkRouteType" value="LinkNetworkRoute" />
		<!-- (not tested) will remove plan attributes that are presumably not used, such as activityStartTime. default=false. Use with Caution! -->
		<param name="removingUnnecessaryPlanAttributes" value="false" />
		<!-- Defines how departure times are interpreted in rerouting applications. If set to 'ignoreDelays', the departure time of a trip when routing along a plan will always be the nominal (plan-based) activity end time. If set to 'shiftActivityEndTimes', routing along a plan will accumulate travel times and shift activity end times if necessary -->
		<param name="tripDurationHandling" value="ignoreDelays" />
	</module>
	<module name="planscalcroute" >
		<!-- Defines how access and egress to main mode is simulated. Either of [none, accessEgressModeToLink, walkConstantTimeToLink, accessEgressModeToLinkPlusTimeConstant], Current default=none which means no access or egress trips are simulated. -->
		<param name="accessEgressType" value="none" />
		<!-- Some typical teleportation routing params are set by default, such as for walk and bike.  Setting this switch to "true" will clear them.  Note that this will also clear settings for helper modes such as for non_network_walk -->
		<param name="clearDefaultTeleportedModeParams" value="false" />
		<!-- All the modes for which the router is supposed to generate network routes (like car) -->
		<param name="networkModes" value="car" />
		<!-- strength of the randomness for the utility of money in routing under toll.  Leads to Pareto-optimal route with randomly drawn money-vs-other-attributes tradeoff. Technically the width parameter of a log-normal distribution. 3.0 seems to be a good value.  -->
		<param name="routingRandomness" value="3.0" />
		<parameterset type="teleportedModeParameters" >
			<param name="beelineDistanceFactor" value="1.3" />
			<param name="mode" value="bike" />
			<!-- Free-speed factor for a teleported mode. Travel time = teleportedModeFreespeedFactor * <freespeed car travel time>. Insert a line like this for every such mode. Please do not set teleportedModeFreespeedFactor as well as teleportedModeSpeed for the same mode, but if you do, +teleportedModeFreespeedFactor wins over teleportedModeSpeed. -->
			<param name="teleportedModeFreespeedFactor" value="null" />
			<!-- Speed for a teleported mode. Travel time = (<beeline distance> * beelineDistanceFactor) / teleportedModeSpeed. Insert a line like this for every such mode. -->
			<param name="teleportedModeSpeed" value="4.166666666666667" />
		</parameterset>
		<parameterset type="teleportedModeParameters" >
			<param name="beelineDistanceFactor" value="1.3" />
			<param name="mode" value="walk" />
			<param name="teleportedModeFreespeedFactor" value="null" />
			<param name="teleportedModeSpeed" value="0.8333333333333333" />
		</parameterset>
		<parameterset type="teleportedModeParameters" >
			<param name="beelineDistanceFactor" value="1.3" />
			<param name="mode" value="non_network_walk" />
			<param name="teleportedModeFreespeedFactor" value="null" />
			<param name="teleportedModeSpeed" value="0.8333333333333333" />
		</parameterset>
		<parameterset type="teleportedModeParameters" >
			<param name="beelineDistanceFactor" value="1.3" />
			<param name="mode" value="ride" />
			<param name="teleportedModeFreespeedFactor" value="1.0" />
			<param name="teleportedModeSpeed" value="null" />
		</parameterset>
		<parameterset type="teleportedModeParameters" >
			<param name="beelineDistanceFactor" value="1.3" />
			<param name="mode" value="pt" />
			<param name="teleportedModeFreespeedFactor" value="2.0" />
			<param name="teleportedModeSpeed" value="null" />
		</parameterset>
	</module>
	<module name="ptCounts" >
		<!-- factor by which to re-scale the simulated values.  necessary when simulation runs with something different from 100%.  needs to be adapted manually -->
		<param name="countsScaleFactor" value="1.0" />
		<!-- distance to distanceFilterCenterNode to include counting stations. The unit of distance is the Euclidean distance implied by the coordinate system -->
		<param name="distanceFilter" value="null" />
		<!-- node id for center node of distance filter -->
		<param name="distanceFilterCenterNode" value="null" />
		<!-- input file containing the alighting (getting off) counts for pt -->
		<param name="inputAlightCountsFile" value="null" />
		<!-- input file containing the boarding (getting on) counts for pt -->
		<param name="inputBoardCountsFile" value="null" />
		<!-- input file containing the occupancy counts for pt -->
		<param name="inputOccupancyCountsFile" value="null" />
		<!-- possible values: `html', `kml', `txt', `all' -->
		<param name="outputformat" value="null" />
		<!-- every how many iterations (starting with 0) counts comparisons are generated -->
		<param name="ptCountsInterval" value="10" />
	</module>
	<module name="qsim" >
		<param name="endTime" value="24:00:00" />
		<!-- If set to withLinkAttributes snapshots will only be generated for links which include generateSnapshotForLink as attribute key. Default is no filtering. -->
		<param name="filterSnapshots" value="no" />
		<param name="flowCapacityFactor" value="1.0" />
		<!-- decides if waiting vehicles enter the network after or before the already driving vehicles were moved. Default: false -->
		<param name="insertingWaitingVehiclesBeforeDrivingVehicles" value="true" />
		<!-- If link dynamics is set as SeepageQ, set to false if all seep modes should perform seepage. Default is true (better option). -->
		<param name="isRestrictingSeepage" value="true" />
		<!-- If link dynamics is set as SeepageQ, set to true if seep mode do not consumes any space on the link. Default is false. -->
		<param name="isSeepModeStorageFree" value="false" />
		<!-- default: FIFO; options: FIFO PassingQ SeepageQ -->
		<param name="linkDynamics" value="FIFO" />
		<!-- The (initial) width of the links of the network. Use positive floating point values. This is used only for visualisation. -->
		<param name="linkWidth" value="30.0" />
		<!-- [comma-separated list] Defines which modes are congested modes. Technically, these are the modes that the departure handler of the netsimengine handles.  Effective cell size, effective lane width, flow capacity factor, and storage capacity factor need to be set with diligence.  Need to be vehicular modes to make sense. -->
		<param name="mainMode" value="car" />
		<!-- Shortens a link in the visualization, i.e. its start and end point are moved into towards the center. Does not affect traffic flow.  -->
		<param name="nodeOffset" value="0.0" />
		<!-- Number of threads used for the QSim.  Note that this setting is independent from the "global" threads setting.  In contrast to earlier versions, the non-parallel special version is no longer there. -->
		<param name="numberOfThreads" value="1" />
		<!-- Boolean. `true': stuck vehicles are removed, aborting the plan; `false': stuck vehicles are forced into the next link. `false' is probably the better choice. -->
		<param name="removeStuckVehicles" value="false" />
		<!-- If link dynamics is set as SeepageQ, set a seep mode. Default is bike. -->
		<param name="seepMode" value="bike" />
		<!-- Possible values: minOfEndtimeAndMobsimFinished, onlyUseEndtime -->
		<param name="simEndtimeInterpretation" value="null" />
		<!-- Options: maxOfStarttimeAndEarliestActivityEnd onlyUseStarttime  -->
		<param name="simStarttimeInterpretation" value="onlyUseStarttime" />
		<!-- snapshotStyle. One of: equiDist queue withHoles withHolesAndShowHoles kinematicWaves  -->
		<param name="snapshotStyle" value="queue" />
		<param name="snapshotperiod" value="00:00:00" />
		<param name="startTime" value="undefined" />
		<param name="storageCapacityFactor" value="1.0" />
		<!-- time in seconds.  Time after which the frontmost vehicle on a link is called `stuck' if it does not move. -->
		<param name="stuckTime" value="10.0" />
		<param name="timeStepSize" value="00:00:01" />
		<!-- options: queue withHoles kinematicWaves  -->
		<param name="trafficDynamics" value="queue" />
		<!-- Set this parameter to true if lanes should be used, false if not. -->
		<param name="useLanes" value="false" />
		<!-- If a route does not reference a vehicle, agents will use the vehicle with the same id as their own. -->
		<param name="usePersonIdForMissingVehicleId" value="true" />
		<!-- If false, the qsim accumulates fractional flows up to one flow unit in every time step.  If true, flows are updated only if an agent wants to enter the link or an agent is added to buffer. Default is true. -->
		<param name="usingFastCapacityUpdate" value="true" />
		<!-- Defines what happens if an agent wants to depart, but the specified vehicle is not available. One of: teleport wait exception  -->
		<param name="vehicleBehavior" value="teleport" />
		<!-- If vehicles should all be the same default vehicle, or come from the vehicles file, or something else.  Possible values:  defaultVehicle modeVehicleTypesFromVehiclesData fromVehiclesData -->
		<param name="vehiclesSource" value="defaultVehicle" />
	</module>
	<module name="strategy" >
		<!-- the external executable will be called with a config file as argument.  This is the pathname to a possible skeleton config, to which additional information will be added.  Can be null. -->
		<param name="ExternalExeConfigTemplate" value="null" />
		<!-- time out value (in seconds) after which matsim will consider the external strategy as failed -->
		<param name="ExternalExeTimeOut" value="3600" />
		<!-- root directory for temporary files generated by the external executable. Provided as a service; I don't think this is used by MATSim. -->
		<param name="ExternalExeTmpFileRootDir" value="null" />
		<!-- fraction of iterations where innovative strategies are switched off.  Something like 0.8 should be good.  E.g. if you run from iteration 400 to iteration 500, innovation is switched off at iteration 480 -->
		<param name="fractionOfIterationsToDisableInnovation" value="0.8" />
		<!-- maximum number of plans per agent.  ``0'' means ``infinity''.  Currently (2010), ``5'' is a good number -->
		<param name="maxAgentPlanMemorySize" value="5" />
		<!-- strategyName of PlanSelector for plans removal.  Possible defaults: WorstPlanSelector SelectRandom SelectExpBetaForRemoval ChangeExpBetaForRemoval PathSizeLogitSelectorForRemoval . The current default, WorstPlanSelector is not a good choice from a discrete choice theoretical perspective. Alternatives, however, have not been systematically tested. kai, feb'12 -->
		<param name="planSelectorForRemoval" value="WorstPlanSelector" />
		<parameterset type="strategysettings" >
			<!-- iteration after which strategy will be disabled.  most useful for ``innovative'' strategies (new routes, new times, ...). Normally, better use fractionOfIterationsToDisableInnovation -->
			<param name="disableAfterIteration" value="-1" />
			<!-- path to external executable (if applicable) -->
			<param name="executionPath" value="null" />
			<!-- strategyName of strategy.  Possible default names: SelectRandom BestScore KeepLastSelected ChangeExpBeta SelectExpBeta SelectPathSizeLogit      (selectors), ReRouteTimeAllocationMutatorTimeAllocationMutator_ReRouteChangeSingleTripModeChangeTripModeSubtourModeChoice (innovative strategies). -->
			<param name="strategyName" value="TimeAllocationMutator" />
			<!-- subpopulation to which the strategy applies. "null" refers to the default population, that is, the set of persons for which no explicit subpopulation is defined (ie no subpopulation attribute) -->
			<param name="subpopulation" value="null" />
			<!-- weight of a strategy: for each agent, a strategy will be selected with a probability proportional to its weight -->
			<param name="weight" value="0.1" />
		</parameterset>
	</module>
	<module name="subtourModeChoice" >
		<!-- Only for backwards compatibility.  Defines if only trips from modes list should change mode, or all trips.  Options: fromAllModesToSpecifiedModes fromSpecifiedModesToSpecifiedModes  -->
		<param name="behavior" value="fromSpecifiedModesToSpecifiedModes" />
		<!-- Defines the chain-based modes, seperated by commas -->
		<param name="chainBasedModes" value="car,bike" />
		<!-- Defines whether car availability must be considered or not. A agent has no car only if it has no license, or never access to a car -->
		<param name="considerCarAvailability" value="false" />
		<!-- Defines all the modes available, including chain-based modes, seperated by commas -->
		<param name="modes" value="car,pt,bike,walk" />
	</module>
	<module name="transit" >
		<!-- The Coordinates Reference System in which the coordinates are expressed in the input file. At import, the coordinates will be converted to the coordinate system defined in "global", and willbe converted back at export. If not specified, no conversion happens. -->
		<param name="inputScheduleCRS" value="null" />
		<param name="insistingOnUsingDeprecatedAttributeFiles" value="false" />
		<!-- The type of transit routing algorithm used, may have the values: [DijkstraBased, SwissRailRaptor] -->
		<param name="routingAlgorithmType" value="SwissRailRaptor" />
		<!-- Optional input file containing additional attributes for transit lines, stored as ObjectAttributes. -->
		<param name="transitLinesAttributesFile" value="null" />
		<!-- Comma-separated list of transportation modes that are handled as transit. Defaults to 'pt'. -->
		<param name="transitModes" value="pt" />
		<!-- Input file containing the transit schedule to be simulated. -->
		<param name="transitScheduleFile" value="null" />
		<!-- Optional input file containing additional attributes for transit stop facilities, stored as ObjectAttributes. -->
		<param name="transitStopsAttributesFile" value="null" />
		<!-- Set this parameter to true if transit should be simulated, false if not. -->
		<param name="useTransit" value="false" />
		<param name="usingTransitInMobsim" value="true" />
		<!-- Input file containing the vehicles used by the departures in the transit schedule. -->
		<param name="vehiclesFile" value="null" />
	</module>
	<module name="transitRouter" >
		<!-- additional time the router allocates when a line switch happens. Can be interpreted as a 'safety' time that agents need to safely transfer from one line to another -->
		<param name="additionalTransferTime" value="0.0" />
		<!-- Factor with which direct walk generalized cost is multiplied before it is compared to the pt generalized cost.  Set to a very high value to reduce direct walk results. -->
		<param name="directWalkFactor" value="1.0" />
		<!-- step size to increase searchRadius if no stops are found -->
		<param name="extensionRadius" value="200.0" />
		<!-- maximum beeline distance between stops that agents could transfer to by walking -->
		<param name="maxBeelineWalkConnectionDistance" value="100.0" />
		<!-- the radius in which stop locations are searched, given a start or target coordinate -->
		<param name="searchRadius" value="1000.0" />
	</module>
	<module name="travelTimeCalculator" >
		<!-- (only for backwards compatibility; only used if separateModes==false && + filterModes==true)  Transport modes that will be respected by the travel time collector. 'car' is default which includes also buses from the pt simulation module. -->
		<param name="analyzedModes" value="car" />
		<param name="calculateLinkToLinkTravelTimes" value="false" />
		<param name="calculateLinkTravelTimes" value="true" />
		<!-- (only for backwards compatiblity; only used if separateModes==false)  Only modes included in analyzedModes are included. -->
		<param name="filterModes" value="false" />
		<!-- The lenght (in sec) of the time period that is splited into time bins; an additional time bin is created to aggregate all travel times collected after maxTime -->
		<param name="maxTime" value="108000" />
		<!-- (only for backwards compatibility) If false, link travel times are measured and aggregated over all vehicles using the link. -->
		<param name="separateModes" value="true" />
		<!-- How to deal with congested time bins that have no link entry events. `optimistic' assumes free speed (too optimistic); 'experimental_LastMile' is experimental and probably too pessimistic. -->
		<param name="travelTimeAggregator" value="optimistic" />
		<!-- The size of the time bin (in sec) into which the link travel times are aggregated for the router -->
		<param name="travelTimeBinSize" value="900" />
		<!-- possible values: TravelTimeCalculatorArray TravelTimeCalculatorHashMap  -->
		<param name="travelTimeCalculator" value="TravelTimeCalculatorArray" />
		<!-- How to deal with link entry times at different positions during the time bin. Currently supported: average, linearinterpolation -->
		<param name="travelTimeGetter" value="average" />
	</module>
	<module name="vehicles" >
		<param name="vehiclesFile" value="null" />
	</module>
	<module name="vspExperimental" >
		<!-- (do not use except of you have to) There was a problem with pt interaction scoring.  Some people solved it by overwriting the parameters of the pt interaction activity type.  Doing this now throws an Exception.  If you still insist on doing this, set the following to true. -->
		<param name="isAbleToOverwritePtInteractionParams" value="false" />
		<param name="isGeneratingBoardingDeniedEvent" value="false" />
		<!-- if an approximation of the opportunity cost of time is included into the radius calculation for location choice.`true' will be faster, but it is an approximation.  Default is `true'; `false' is available for backwards compatibility. -->
		<param name="isUsingOpportunityCostOfTimeForLocationChoice" value="true" />
		<param name="logitScaleParamForPlansRemoval" value="1.0" />
		<!-- Options: | ignore | info | warn | abort | .  When violating VSP defaults, this results in nothing, logfile infos, logfile warnings, or aborts.  Members of VSP should use `abort' or talk to kai. -->
		<param name="vspDefaultsCheckingLevel" value="ignore" />
		<!-- if true then writes output_events in output directory.  default is `false'. Will only work when lastIteration is multiple of events writing interval -->
		<param name="writingOutputEvents" value="true" />
	</module>

</config>

2021-11-10T17:27:18,846  INFO ControlerUtils:84 Complete config dump done.
2021-11-10T17:27:18,846  INFO ControlerUtils:85 Checking consistency of config...
2021-11-10T17:27:18,846  INFO VspConfigConsistencyCheckerImpl:63 NOT running vsp config consistency check because vsp defaults checking level is set to IGNORE
2021-11-10T17:27:18,853  INFO ControlerUtils:87 Checking consistency of config done.
2021-11-10T17:27:18,854  INFO PrepareForSimImpl:121 Network seems to be multimodal. Create car-only network which is handed over to PersonPrepareForSim.
2021-11-10T17:27:18,854  INFO NetworkImpl:163  node # 1
2021-11-10T17:27:18,854  INFO NetworkImpl:163  node # 4
2021-11-10T17:27:18,854  INFO NetworkImpl:163  node # 16
2021-11-10T17:27:18,854  INFO NetworkImpl:163  node # 64
2021-11-10T17:27:18,854  INFO NetworkImpl:163  node # 256
2021-11-10T17:27:18,855  INFO NetworkImpl:163  node # 1024
2021-11-10T17:27:18,856  INFO NetworkImpl:163  node # 4096
2021-11-10T17:27:18,856  INFO NetworkImpl:159  link # 1
2021-11-10T17:27:18,856  INFO NetworkImpl:159  link # 4
2021-11-10T17:27:18,856  INFO NetworkImpl:159  link # 16
2021-11-10T17:27:18,857  INFO NetworkImpl:159  link # 64
2021-11-10T17:27:18,857  INFO NetworkImpl:159  link # 256
2021-11-10T17:27:18,859  INFO NetworkImpl:159  link # 1024
2021-11-10T17:27:18,865  INFO NetworkImpl:159  link # 4096
2021-11-10T17:27:18,882  WARN PrepareForSimImpl:228 'usePersonIdForMissingVehicleId' is deprecated. It will be removed soon.
2021-11-10T17:27:18,886  INFO Counter:69 [VehiclesImpl] added vehicle # 1
2021-11-10T17:27:18,887  INFO Counter:69 [VehiclesImpl] added vehicle # 2
2021-11-10T17:27:18,887  INFO Counter:69 [VehiclesImpl] added vehicle # 4
2021-11-10T17:27:18,887  INFO Counter:69 [VehiclesImpl] added vehicle # 8
2021-11-10T17:27:18,887  INFO Counter:69 [VehiclesImpl] added vehicle # 16
2021-11-10T17:27:18,887  INFO Counter:69 [VehiclesImpl] added vehicle # 32
2021-11-10T17:27:18,888  INFO Counter:69 [VehiclesImpl] added vehicle # 64
2021-11-10T17:27:18,888  INFO Counter:69 [VehiclesImpl] added vehicle # 128
2021-11-10T17:27:18,889  INFO Counter:69 [VehiclesImpl] added vehicle # 256
2021-11-10T17:27:18,891  INFO Counter:69 [VehiclesImpl] added vehicle # 512
2021-11-10T17:27:18,894  INFO Counter:69 [VehiclesImpl] added vehicle # 1024
2021-11-10T17:27:18,898  INFO Counter:69 [VehiclesImpl] added vehicle # 2048
2021-11-10T17:27:18,903  INFO Counter:69 [VehiclesImpl] added vehicle # 4096
2021-11-10T17:27:18,913  INFO Counter:69 [VehiclesImpl] added vehicle # 8192
2021-11-10T17:27:18,929  INFO Counter:69 [VehiclesImpl] added vehicle # 16384
2021-11-10T17:27:19,079  INFO PreProcessDijkstra:118 nodes in dead ends: 1210 (total nodes: 4477). Done in 17 ms
2021-11-10T17:27:19,080  WARN PreProcessEuclidean:59 There are links with stored length smaller than their Euclidean distance in this network. Thus, A* cannot guarantee to calculate the least-cost paths between two nodes.
2021-11-10T17:27:19,084  INFO PreProcessLandmarks:112 Putting landmarks on network...
2021-11-10T17:27:19,089  INFO LandmarkerPieSlices:96 Filling sectors...
2021-11-10T17:27:19,105  INFO LandmarkerPieSlices:107 Refining landmarks...
2021-11-10T17:27:19,106  INFO LandmarkerPieSlices:109 done
2021-11-10T17:27:19,107  INFO PreProcessLandmarks:115 done in 22 ms
2021-11-10T17:27:19,107  INFO PreProcessLandmarks:117 Initializing landmarks data
2021-11-10T17:27:19,111  INFO PreProcessLandmarks:129 Calculating distance from each node to each of the 16 landmarks using 2 threads...
2021-11-10T17:27:19,112  INFO PreProcessLandmarks:139 wait for landmarks Calculator to finish...
2021-11-10T17:27:19,285  INFO PreProcessLandmarks:163 done in 173 ms
2021-11-10T17:27:19,288  INFO NetworkImpl:163  node # 1
2021-11-10T17:27:19,288  INFO NetworkImpl:163  node # 4
2021-11-10T17:27:19,288  INFO NetworkImpl:163  node # 16
2021-11-10T17:27:19,288  INFO NetworkImpl:163  node # 64
2021-11-10T17:27:19,289  INFO NetworkImpl:163  node # 256
2021-11-10T17:27:19,289  INFO NetworkImpl:163  node # 1024
2021-11-10T17:27:19,292  INFO NetworkImpl:163  node # 4096
2021-11-10T17:27:19,292  INFO NetworkImpl:159  link # 1
2021-11-10T17:27:19,292  INFO NetworkImpl:159  link # 4
2021-11-10T17:27:19,292  INFO NetworkImpl:159  link # 16
2021-11-10T17:27:19,292  INFO NetworkImpl:159  link # 64
2021-11-10T17:27:19,293  INFO NetworkImpl:159  link # 256
2021-11-10T17:27:19,296  INFO NetworkImpl:159  link # 1024
2021-11-10T17:27:19,306  INFO NetworkImpl:159  link # 4096
2021-11-10T17:27:19,329  WARN RandomizingTimeDistanceTravelDisutilityFactory:112 There will be no routing randomness. The randomization of the travel disutility requires the monetary distance rate to be different than zero. Continuing anyway.
2021-11-10T17:27:19,329  WARN RandomizingTimeDistanceTravelDisutilityFactory:117 There will be no routing randomness. The randomization of the travel disutility requires the travel time cost rate to be different than zero. Continuing anyway.
2021-11-10T17:27:19,332  INFO RandomizingTimeDistanceTravelDisutilityFactory:85  sigma: 3.0; resulting normalization: 0.011108996538242306
2021-11-10T17:27:19,347  INFO PreProcessDijkstra:118 nodes in dead ends: 1153 (total nodes: 4415). Done in 14 ms
2021-11-10T17:27:19,347  WARN PreProcessEuclidean:59 There are links with stored length smaller than their Euclidean distance in this network. Thus, A* cannot guarantee to calculate the least-cost paths between two nodes.
2021-11-10T17:27:19,349  INFO PreProcessLandmarks:112 Putting landmarks on network...
2021-11-10T17:27:19,351  INFO LandmarkerPieSlices:96 Filling sectors...
2021-11-10T17:27:19,358  INFO LandmarkerPieSlices:107 Refining landmarks...
2021-11-10T17:27:19,358  INFO LandmarkerPieSlices:109 done
2021-11-10T17:27:19,359  INFO PreProcessLandmarks:115 done in 9 ms
2021-11-10T17:27:19,359  INFO PreProcessLandmarks:117 Initializing landmarks data
2021-11-10T17:27:19,360  INFO PreProcessLandmarks:129 Calculating distance from each node to each of the 16 landmarks using 2 threads...
2021-11-10T17:27:19,360  INFO PreProcessLandmarks:139 wait for landmarks Calculator to finish...
2021-11-10T17:27:19,442  INFO PreProcessLandmarks:163 done in 82 ms
2021-11-10T17:27:19,451  INFO SpeedyALTData:51 find dead ends...
2021-11-10T17:27:19,456  INFO SpeedyALTData:132 calculate landmarks...
2021-11-10T17:27:19,535  INFO SpeedyALTData:173 calculate min travelcost...
2021-11-10T17:27:19,546  INFO RandomizingTimeDistanceTravelDisutilityFactory:85  sigma: 3.0; resulting normalization: 0.011108996538242306
2021-11-10T17:27:19,560  INFO NetworkImpl:422 building QuadTree for nodes: xrange(439459.06825334975,483553.56240213366); yrange(5711221.598506039,5766339.24313264)
2021-11-10T17:27:19,579  INFO NetworkImpl:431 Building QuadTree took 0.023 seconds.
2021-11-10T17:27:19,587  INFO Counter:69 [PersonPrepareForSim] handled person # 1
2021-11-10T17:27:19,588  INFO Counter:69 [PersonPrepareForSim] handled person # 2
2021-11-10T17:27:19,589  INFO Counter:69 [PersonPrepareForSim] handled person # 4
2021-11-10T17:27:19,591  INFO Counter:69 [PersonPrepareForSim] handled person # 8
2021-11-10T17:27:19,598  INFO Counter:69 [PersonPrepareForSim] handled person # 16
2021-11-10T17:27:19,608  INFO Counter:69 [PersonPrepareForSim] handled person # 32
2021-11-10T17:27:19,618  INFO Counter:69 [PersonPrepareForSim] handled person # 64
2021-11-10T17:27:19,640  INFO Counter:69 [PersonPrepareForSim] handled person # 128
2021-11-10T17:27:19,676  INFO Counter:69 [PersonPrepareForSim] handled person # 256
2021-11-10T17:27:19,749  INFO Counter:69 [PersonPrepareForSim] handled person # 512
2021-11-10T17:27:19,894  INFO Counter:69 [PersonPrepareForSim] handled person # 1024
2021-11-10T17:27:20,024  INFO Counter:69 [PersonPrepareForSim] handled person # 2048
2021-11-10T17:27:20,258  INFO Counter:69 [PersonPrepareForSim] handled person # 4096
2021-11-10T17:27:20,579  INFO Counter:69 [PersonPrepareForSim] handled person # 8192
2021-11-10T17:27:21,197  INFO Counter:69 [PersonPrepareForSim] handled person # 16384
2021-11-10T17:27:21,455  INFO Counter:74 [PersonPrepareForSim] handled person # 22752
2021-11-10T17:27:21,466  INFO AbstractController:133 ###################################################
2021-11-10T17:27:21,466  INFO AbstractController:134 ### ITERATION 0 BEGINS
2021-11-10T17:27:21,467  INFO ControlerListenerManagerImpl:145 calling notifyIterationStarts on org.matsim.analysis.LegHistogramListener
2021-11-10T17:27:21,467  INFO ControlerListenerManagerImpl:145 calling notifyIterationStarts on org.matsim.analysis.LinkStatsControlerListener
2021-11-10T17:27:21,467  INFO ControlerListenerManagerImpl:145 calling notifyIterationStarts on org.matsim.core.replanning.ReplanningContextImpl
2021-11-10T17:27:21,467  INFO ControlerListenerManagerImpl:145 calling notifyIterationStarts on org.matsim.core.scoring.ScoringFunctionsForPopulation$$Lambda$241/0x00000008003bc000
2021-11-10T17:27:21,529  INFO ControlerListenerManagerImpl:145 calling notifyIterationStarts on org.matsim.core.scoring.ExperiencedPlansServiceImpl$1
2021-11-10T17:27:21,535  INFO ControlerListenerManagerImpl:148 [it.0] all ControlerIterationStartsListeners called.
2021-11-10T17:27:21,536  INFO ControlerListenerManagerImpl:224 calling notifyBeforeMobsim on org.matsim.core.controler.corelisteners.EventsHandlingImpl
2021-11-10T17:27:21,536  INFO EventsManagerImpl:190 resetting Event-Handlers
2021-11-10T17:27:21,536  INFO EventsManagerImpl:197   org.matsim.core.trafficmonitoring.TravelTimeCalculator
2021-11-10T17:27:21,536  INFO EventsManagerImpl:197   org.matsim.contrib.taxi.fare.TaxiFareHandler
2021-11-10T17:27:21,536  INFO EventsManagerImpl:197   org.matsim.analysis.VolumesAnalyzer
2021-11-10T17:27:21,536  INFO EventsManagerImpl:197   org.matsim.core.scoring.ScoringFunctionsForPopulation
2021-11-10T17:27:21,537  INFO EventsManagerImpl:197   org.matsim.analysis.LegHistogram
2021-11-10T17:27:21,537  INFO EventsManagerImpl:197   org.matsim.analysis.CalcLegTimes
2021-11-10T17:27:21,537  INFO EventsManagerImpl:197   org.matsim.contrib.taxi.analysis.TaxiEventSequenceCollector
2021-11-10T17:27:21,537  INFO EventsManagerImpl:197   org.matsim.contrib.dvrp.analysis.ExecutedScheduleCollector
2021-11-10T17:27:21,539  INFO EventsManagerImpl:160 adding Event-Handler: org.matsim.core.events.algorithms.EventWriterXML
2021-11-10T17:27:21,539  INFO EventsManagerImpl:166   org.matsim.core.events.algorithms.EventWriter
2021-11-10T17:27:21,539  INFO EventsManagerImpl:166   org.matsim.core.events.handler.BasicEventHandler
2021-11-10T17:27:21,539  INFO EventsManagerImpl:227     > org.matsim.api.core.v01.events.Event
2021-11-10T17:27:21,539  INFO EventsManagerImpl:176 
2021-11-10T17:27:21,539  INFO EventsManagerImpl:160 adding Event-Handler: org.matsim.core.events.algorithms.EventWriterXML
2021-11-10T17:27:21,539  INFO EventsManagerImpl:166   org.matsim.core.events.algorithms.EventWriter
2021-11-10T17:27:21,539  INFO EventsManagerImpl:166   org.matsim.core.events.handler.BasicEventHandler
2021-11-10T17:27:21,539  INFO EventsManagerImpl:227     > org.matsim.api.core.v01.events.Event
2021-11-10T17:27:21,540  INFO EventsManagerImpl:176 
2021-11-10T17:27:21,540  INFO ControlerListenerManagerImpl:224 calling notifyBeforeMobsim on org.matsim.core.controler.corelisteners.PlansDumpingImpl
2021-11-10T17:27:21,540  INFO PlansDumpingImpl:76 dumping plans...
2021-11-10T17:27:21,667  INFO Counter:69 [PopulationWriter] dumped person # 1
2021-11-10T17:27:21,667  INFO Counter:69 [PopulationWriter] dumped person # 2
2021-11-10T17:27:21,668  INFO Counter:69 [PopulationWriter] dumped person # 4
2021-11-10T17:27:21,670  INFO Counter:69 [PopulationWriter] dumped person # 8
2021-11-10T17:27:21,672  INFO Counter:69 [PopulationWriter] dumped person # 16
2021-11-10T17:27:21,680  INFO Counter:69 [PopulationWriter] dumped person # 32
2021-11-10T17:27:21,684  INFO Counter:69 [PopulationWriter] dumped person # 64
2021-11-10T17:27:21,695  INFO Counter:69 [PopulationWriter] dumped person # 128
2021-11-10T17:27:21,707  INFO Counter:69 [PopulationWriter] dumped person # 256
2021-11-10T17:27:21,737  INFO Counter:69 [PopulationWriter] dumped person # 512
2021-11-10T17:27:21,789  INFO Counter:69 [PopulationWriter] dumped person # 1024
2021-11-10T17:27:21,886  INFO Counter:69 [PopulationWriter] dumped person # 2048
2021-11-10T17:27:22,056  INFO Counter:69 [PopulationWriter] dumped person # 4096
2021-11-10T17:27:22,308  INFO Counter:69 [PopulationWriter] dumped person # 8192
2021-11-10T17:27:22,792  INFO Counter:69 [PopulationWriter] dumped person # 16384
2021-11-10T17:27:23,133  INFO PopulationWriter:144 Population written to: output/robotaxi/ITERS/it.0/0.plans.xml.gz
2021-11-10T17:27:23,134  INFO Counter:74 [PopulationWriter] dumped person # 22752
2021-11-10T17:27:23,134  INFO PlansDumpingImpl:93 finished plans dump.
2021-11-10T17:27:23,134  INFO ControlerListenerManagerImpl:229 calling notifyBeforeMobsim on org.matsim.core.population.VspPlansCleaner
2021-11-10T17:27:23,180  INFO ControlerListenerManagerImpl:232 [it.0] all ControlerBeforeMobsimListeners called.
2021-11-10T17:27:23,181  INFO PrepareForMobsimImpl:86 Network seems to be multimodal. Create car-only network which is handed over to PersonPrepareForSim.
2021-11-10T17:27:23,181  INFO NetworkImpl:163  node # 1
2021-11-10T17:27:23,181  INFO NetworkImpl:163  node # 4
2021-11-10T17:27:23,181  INFO NetworkImpl:163  node # 16
2021-11-10T17:27:23,181  INFO NetworkImpl:163  node # 64
2021-11-10T17:27:23,181  INFO NetworkImpl:163  node # 256
2021-11-10T17:27:23,181  INFO NetworkImpl:163  node # 1024
2021-11-10T17:27:23,182  INFO NetworkImpl:163  node # 4096
2021-11-10T17:27:23,183  INFO NetworkImpl:159  link # 1
2021-11-10T17:27:23,183  INFO NetworkImpl:159  link # 4
2021-11-10T17:27:23,183  INFO NetworkImpl:159  link # 16
2021-11-10T17:27:23,183  INFO NetworkImpl:159  link # 64
2021-11-10T17:27:23,183  INFO NetworkImpl:159  link # 256
2021-11-10T17:27:23,184  INFO NetworkImpl:159  link # 1024
2021-11-10T17:27:23,190  INFO NetworkImpl:159  link # 4096
2021-11-10T17:27:23,200  INFO RandomizingTimeDistanceTravelDisutilityFactory:85  sigma: 3.0; resulting normalization: 0.011108996538242306
2021-11-10T17:27:23,203  INFO RandomizingTimeDistanceTravelDisutilityFactory:85  sigma: 3.0; resulting normalization: 0.011108996538242306
2021-11-10T17:27:23,211  INFO Counter:69 [PersonPrepareForSim] handled person # 2
2021-11-10T17:27:23,211  INFO Counter:69 [PersonPrepareForSim] handled person # 4
2021-11-10T17:27:23,212  INFO Counter:69 [PersonPrepareForSim] handled person # 8
2021-11-10T17:27:23,212  INFO Counter:69 [PersonPrepareForSim] handled person # 16
2021-11-10T17:27:23,211  INFO Counter:69 [PersonPrepareForSim] handled person # 1
2021-11-10T17:27:23,213  INFO Counter:69 [PersonPrepareForSim] handled person # 32
2021-11-10T17:27:23,213  INFO Counter:69 [PersonPrepareForSim] handled person # 64
2021-11-10T17:27:23,214  INFO Counter:69 [PersonPrepareForSim] handled person # 128
2021-11-10T17:27:23,216  INFO Counter:69 [PersonPrepareForSim] handled person # 256
2021-11-10T17:27:23,219  INFO Counter:69 [PersonPrepareForSim] handled person # 512
2021-11-10T17:27:23,223  INFO Counter:69 [PersonPrepareForSim] handled person # 1024
2021-11-10T17:27:23,231  INFO Counter:69 [PersonPrepareForSim] handled person # 2048
2021-11-10T17:27:23,245  INFO Counter:69 [PersonPrepareForSim] handled person # 4096
2021-11-10T17:27:23,268  INFO Counter:69 [PersonPrepareForSim] handled person # 8192
2021-11-10T17:27:23,307  INFO Counter:69 [PersonPrepareForSim] handled person # 16384
2021-11-10T17:27:23,340  INFO Counter:74 [PersonPrepareForSim] handled person # 22752
2021-11-10T17:27:23,424  INFO MobsimListenerManager:49 calling addQueueSimulationListener
2021-11-10T17:27:23,424  INFO MobsimListenerManager:53   assigned class org.matsim.core.mobsim.framework.listeners.MobsimListener to interface org.matsim.core.mobsim.framework.listeners.MobsimBeforeCleanupListener
2021-11-10T17:27:23,425  INFO MobsimListenerManager:53   assigned class org.matsim.core.mobsim.framework.listeners.MobsimListener to interface org.matsim.contrib.dvrp.trafficmonitoring.DvrpOfflineTravelTimeEstimator
2021-11-10T17:27:23,425  INFO MobsimListenerManager:53   assigned class org.matsim.core.mobsim.framework.listeners.MobsimListener to interface org.matsim.core.mobsim.framework.listeners.MobsimListener
2021-11-10T17:27:23,425  INFO MobsimListenerManager:49 calling addQueueSimulationListener
2021-11-10T17:27:23,425  INFO MobsimListenerManager:53   assigned class org.matsim.core.mobsim.framework.listeners.MobsimListener to interface org.matsim.core.mobsim.framework.listeners.MobsimInitializedListener
2021-11-10T17:27:23,425  INFO MobsimListenerManager:53   assigned class org.matsim.core.mobsim.framework.listeners.MobsimListener to interface org.matsim.vis.snapshotwriters.SnapshotWriterManager
2021-11-10T17:27:23,425  INFO MobsimListenerManager:53   assigned class org.matsim.core.mobsim.framework.listeners.MobsimListener to interface org.matsim.core.mobsim.framework.listeners.MobsimBeforeCleanupListener
2021-11-10T17:27:23,425  INFO MobsimListenerManager:53   assigned class org.matsim.core.mobsim.framework.listeners.MobsimListener to interface org.matsim.core.mobsim.framework.listeners.MobsimAfterSimStepListener
2021-11-10T17:27:23,425  INFO MobsimListenerManager:53   assigned class org.matsim.core.mobsim.framework.listeners.MobsimListener to interface org.matsim.core.mobsim.framework.listeners.MobsimListener
2021-11-10T17:27:23,444  INFO SpeedyALTData:51 find dead ends...
2021-11-10T17:27:23,445  INFO SpeedyALTData:132 calculate landmarks...
2021-11-10T17:27:23,482  INFO SpeedyALTData:173 calculate min travelcost...
2021-11-10T17:27:24,118  INFO SpeedyALTData:51 find dead ends...
2021-11-10T17:27:24,119  INFO SpeedyALTData:132 calculate landmarks...
2021-11-10T17:27:24,147  INFO SpeedyALTData:173 calculate min travelcost...
2021-11-10T17:27:24,154  INFO RandomizingTimeDistanceTravelDisutilityFactory:85  sigma: 3.0; resulting normalization: 0.011108996538242306
2021-11-10T17:27:24,203  INFO EventsManagerImpl:160 adding Event-Handler: org.matsim.contrib.dvrp.passenger.DefaultPassengerEngine
2021-11-10T17:27:24,203  INFO EventsManagerImpl:166   org.matsim.contrib.dvrp.passenger.PassengerEngine
2021-11-10T17:27:24,204  INFO EventsManagerImpl:166   org.matsim.contrib.dvrp.passenger.PassengerRequestRejectedEventHandler
2021-11-10T17:27:24,204  INFO EventsManagerImpl:227     > org.matsim.contrib.dvrp.passenger.PassengerRequestRejectedEvent
2021-11-10T17:27:24,204  INFO EventsManagerImpl:176 
2021-11-10T17:27:24,204  INFO EventsManagerImpl:160 adding Event-Handler: org.matsim.contrib.dvrp.passenger.DefaultPassengerEngine
2021-11-10T17:27:24,204  INFO EventsManagerImpl:166   org.matsim.contrib.dvrp.passenger.PassengerEngine
2021-11-10T17:27:24,204  INFO EventsManagerImpl:166   org.matsim.contrib.dvrp.passenger.PassengerRequestRejectedEventHandler
2021-11-10T17:27:24,204  INFO EventsManagerImpl:227     > org.matsim.contrib.dvrp.passenger.PassengerRequestRejectedEvent
2021-11-10T17:27:24,204  INFO EventsManagerImpl:176 
2021-11-10T17:27:24,206  INFO QSimProvider:115 Added MobsimEngine class org.matsim.core.mobsim.qsim.ActivityEngineDefaultImpl
2021-11-10T17:27:24,206  INFO QSimProvider:121 Added Activityhandler class org.matsim.core.mobsim.qsim.ActivityEngineDefaultImpl
2021-11-10T17:27:24,206  INFO QSimProvider:127 Added DepartureHandler class org.matsim.core.mobsim.qsim.qnetsimengine.VehicularDepartureHandler
2021-11-10T17:27:24,206  INFO QSimProvider:115 Added MobsimEngine class org.matsim.core.mobsim.qsim.qnetsimengine.QNetsimEngineWithThreadpool
2021-11-10T17:27:24,206  INFO QSimProvider:115 Added MobsimEngine class org.matsim.core.mobsim.qsim.DefaultTeleportationEngine
2021-11-10T17:27:24,206  INFO QSimProvider:127 Added DepartureHandler class org.matsim.core.mobsim.qsim.DefaultTeleportationEngine
2021-11-10T17:27:24,207  INFO QSimProvider:133 Added AgentSource class org.matsim.core.mobsim.qsim.agents.PopulationAgentSource
2021-11-10T17:27:24,207  INFO MobsimListenerManager:49 calling addQueueSimulationListener
2021-11-10T17:27:24,207  INFO MobsimListenerManager:53   assigned class org.matsim.core.mobsim.framework.listeners.MobsimListener to interface org.matsim.core.mobsim.framework.listeners.MobsimBeforeSimStepListener
2021-11-10T17:27:24,207  INFO MobsimListenerManager:53   assigned class org.matsim.core.mobsim.framework.listeners.MobsimListener to interface org.matsim.core.mobsim.qsim.messagequeueengine.MessageQueueEngine
2021-11-10T17:27:24,207  INFO MobsimListenerManager:53   assigned class org.matsim.core.mobsim.framework.listeners.MobsimListener to interface org.matsim.core.mobsim.framework.listeners.MobsimListener
2021-11-10T17:27:24,207  INFO QSimProvider:139 Added MobsimListener class org.matsim.core.mobsim.qsim.messagequeueengine.MessageQueueEngine
2021-11-10T17:27:24,207  INFO QSimProvider:115 Added MobsimEngine class org.matsim.contrib.dynagent.run.DynActivityEngine
2021-11-10T17:27:24,207  INFO QSimProvider:121 Added Activityhandler class org.matsim.contrib.dynagent.run.DynActivityEngine
2021-11-10T17:27:24,208  WARN EditTrips:115 no TransitStopAgentTracker found in qsim. Replanning of pt/transit legs will not work properly and will likely fail.
2021-11-10T17:27:24,208  INFO QSimProvider:115 Added MobsimEngine class org.matsim.core.mobsim.qsim.PreplanningEngine
2021-11-10T17:27:24,209  INFO QSimProvider:133 Added AgentSource class org.matsim.contrib.dvrp.vrpagent.VrpAgentSource
2021-11-10T17:27:24,209  INFO QSimProvider:115 Added MobsimEngine class org.matsim.contrib.dvrp.passenger.DefaultPassengerEngine
2021-11-10T17:27:24,209  INFO QSimProvider:127 Added DepartureHandler class org.matsim.contrib.dvrp.passenger.DefaultPassengerEngine
2021-11-10T17:27:24,209  INFO MobsimListenerManager:49 calling addQueueSimulationListener
2021-11-10T17:27:24,209  INFO MobsimListenerManager:53   assigned class org.matsim.core.mobsim.framework.listeners.MobsimListener to interface org.matsim.core.mobsim.framework.listeners.MobsimBeforeSimStepListener
2021-11-10T17:27:24,209  INFO MobsimListenerManager:53   assigned class org.matsim.core.mobsim.framework.listeners.MobsimListener to interface org.matsim.contrib.taxi.optimizer.TaxiOptimizer
2021-11-10T17:27:24,209  INFO MobsimListenerManager:53   assigned class org.matsim.core.mobsim.framework.listeners.MobsimListener to interface org.matsim.contrib.taxi.optimizer.DefaultTaxiOptimizer
2021-11-10T17:27:24,209  INFO MobsimListenerManager:53   assigned class org.matsim.core.mobsim.framework.listeners.MobsimListener to interface org.matsim.core.mobsim.framework.listeners.MobsimListener
2021-11-10T17:27:24,209  INFO MobsimListenerManager:53   assigned class org.matsim.core.mobsim.framework.listeners.MobsimListener to interface org.matsim.contrib.taxi.optimizer.rules.RuleBasedTaxiOptimizer
2021-11-10T17:27:24,209  INFO QSimProvider:139 Added MobsimListener class org.matsim.contrib.taxi.optimizer.rules.RuleBasedTaxiOptimizer
2021-11-10T17:27:24,209  INFO MobsimListenerManager:49 calling addQueueSimulationListener
2021-11-10T17:27:24,209  INFO MobsimListenerManager:53   assigned class org.matsim.core.mobsim.framework.listeners.MobsimListener to interface org.matsim.core.mobsim.framework.listeners.MobsimBeforeCleanupListener
2021-11-10T17:27:24,209  INFO MobsimListenerManager:53   assigned class org.matsim.core.mobsim.framework.listeners.MobsimListener to interface org.matsim.core.mobsim.framework.listeners.MobsimListener
2021-11-10T17:27:24,209  INFO MobsimListenerManager:53   assigned class org.matsim.core.mobsim.framework.listeners.MobsimListener to interface org.matsim.contrib.taxi.scheduler.TaxiScheduler
2021-11-10T17:27:24,209  INFO QSimProvider:139 Added MobsimListener class org.matsim.contrib.taxi.scheduler.TaxiScheduler
2021-11-10T17:27:24,209  INFO MobsimListenerManager:49 calling addQueueSimulationListener
2021-11-10T17:27:24,210  INFO MobsimListenerManager:53   assigned class org.matsim.core.mobsim.framework.listeners.MobsimListener to interface org.matsim.contrib.taxi.util.TaxiSimulationConsistencyChecker
2021-11-10T17:27:24,210  INFO MobsimListenerManager:53   assigned class org.matsim.core.mobsim.framework.listeners.MobsimListener to interface org.matsim.core.mobsim.framework.listeners.MobsimBeforeCleanupListener
2021-11-10T17:27:24,210  INFO MobsimListenerManager:53   assigned class org.matsim.core.mobsim.framework.listeners.MobsimListener to interface org.matsim.core.mobsim.framework.listeners.MobsimListener
2021-11-10T17:27:24,210  INFO QSimProvider:139 Added MobsimListener class org.matsim.contrib.taxi.util.TaxiSimulationConsistencyChecker
2021-11-10T17:27:24,216  INFO MobsimListenerManager:49 calling addQueueSimulationListener
2021-11-10T17:27:24,217  INFO MobsimListenerManager:53   assigned class org.matsim.core.mobsim.framework.listeners.MobsimListener to interface org.matsim.core.mobsim.framework.listeners.MobsimBeforeSimStepListener
2021-11-10T17:27:24,217  INFO MobsimListenerManager:53   assigned class org.matsim.core.mobsim.framework.listeners.MobsimListener to interface org.matsim.core.mobsim.framework.listeners.MobsimBeforeCleanupListener
[...]
2021-11-10T17:31:52,415  INFO Counter:69 [PlanMutateTimeAllocationSimplified] handled plan # 2048
2021-11-10T17:31:52,418  INFO Counter:69 [PlanMutateTimeAllocationSimplified] handled plan # 4096
2021-11-10T17:31:52,425  INFO Counter:69 [PlanMutateTimeAllocationSimplified] handled plan # 8192
2021-11-10T17:31:52,435  INFO Counter:69 [PlanMutateTimeAllocationSimplified] handled plan # 16384
2021-11-10T17:31:52,441  INFO AbstractMultithreadedModule:156 [PlanMutateTimeAllocationSimplified] all 2 threads finished.
2021-11-10T17:31:52,441  INFO GenericPlanStrategyImpl:125 Plan-Strategy finished, 22752 plans handled. Strategy: RandomPlanSelector_TimeAllocationMutatorModule
2021-11-10T17:31:52,441  INFO ControlerListenerManagerImpl:213 [it.5] all ControlerReplanningListeners called.
2021-11-10T17:31:52,441  INFO ControlerListenerManagerImpl:224 calling notifyBeforeMobsim on org.matsim.core.controler.corelisteners.EventsHandlingImpl
2021-11-10T17:31:52,441  INFO EventsManagerImpl:190 resetting Event-Handlers
2021-11-10T17:31:52,441  INFO EventsManagerImpl:197   org.matsim.core.trafficmonitoring.TravelTimeCalculator
2021-11-10T17:31:52,444  INFO EventsManagerImpl:197   org.matsim.contrib.taxi.fare.TaxiFareHandler
2021-11-10T17:31:52,444  INFO EventsManagerImpl:197   org.matsim.analysis.VolumesAnalyzer
2021-11-10T17:31:52,444  INFO EventsManagerImpl:197   org.matsim.core.scoring.ScoringFunctionsForPopulation
2021-11-10T17:31:52,444  INFO EventsManagerImpl:197   org.matsim.analysis.LegHistogram
2021-11-10T17:31:52,444  INFO EventsManagerImpl:197   org.matsim.analysis.CalcLegTimes
2021-11-10T17:31:52,445  INFO EventsManagerImpl:197   org.matsim.contrib.taxi.analysis.TaxiEventSequenceCollector
2021-11-10T17:31:52,445  INFO EventsManagerImpl:197   org.matsim.contrib.dvrp.analysis.ExecutedScheduleCollector
2021-11-10T17:31:52,445  INFO ControlerListenerManagerImpl:224 calling notifyBeforeMobsim on org.matsim.core.controler.corelisteners.PlansDumpingImpl
2021-11-10T17:31:52,445  INFO ControlerListenerManagerImpl:229 calling notifyBeforeMobsim on org.matsim.core.population.VspPlansCleaner
2021-11-10T17:31:52,475  INFO ControlerListenerManagerImpl:232 [it.5] all ControlerBeforeMobsimListeners called.
2021-11-10T17:31:52,475  INFO PrepareForMobsimImpl:86 Network seems to be multimodal. Create car-only network which is handed over to PersonPrepareForSim.
2021-11-10T17:31:52,475  INFO NetworkImpl:163  node # 1
2021-11-10T17:31:52,475  INFO NetworkImpl:163  node # 4
2021-11-10T17:31:52,475  INFO NetworkImpl:163  node # 16
2021-11-10T17:31:52,475  INFO NetworkImpl:163  node # 64
2021-11-10T17:31:52,475  INFO NetworkImpl:163  node # 256
2021-11-10T17:31:52,475  INFO NetworkImpl:163  node # 1024
2021-11-10T17:31:52,476  INFO NetworkImpl:163  node # 4096
2021-11-10T17:31:52,476  INFO NetworkImpl:159  link # 1
2021-11-10T17:31:52,476  INFO NetworkImpl:159  link # 4
2021-11-10T17:31:52,476  INFO NetworkImpl:159  link # 16
2021-11-10T17:31:52,476  INFO NetworkImpl:159  link # 64
2021-11-10T17:31:52,476  INFO NetworkImpl:159  link # 256
2021-11-10T17:31:52,477  INFO NetworkImpl:159  link # 1024
2021-11-10T17:31:52,479  INFO NetworkImpl:159  link # 4096
2021-11-10T17:31:52,488  INFO Counter:69 [PersonPrepareForSim] handled person # 1
2021-11-10T17:31:52,488  INFO Counter:69 [PersonPrepareForSim] handled person # 2
2021-11-10T17:31:52,489  INFO Counter:69 [PersonPrepareForSim] handled person # 4
2021-11-10T17:31:52,489  INFO Counter:69 [PersonPrepareForSim] handled person # 8
2021-11-10T17:31:52,489  INFO Counter:69 [PersonPrepareForSim] handled person # 16
2021-11-10T17:31:52,489  INFO Counter:69 [PersonPrepareForSim] handled person # 32
2021-11-10T17:31:52,490  INFO Counter:69 [PersonPrepareForSim] handled person # 64
2021-11-10T17:31:52,492  INFO Counter:69 [PersonPrepareForSim] handled person # 128
2021-11-10T17:31:52,495  INFO Counter:69 [PersonPrepareForSim] handled person # 256
2021-11-10T17:31:52,501  INFO Counter:69 [PersonPrepareForSim] handled person # 512
2021-11-10T17:31:52,511  INFO Counter:69 [PersonPrepareForSim] handled person # 1024
2021-11-10T17:31:52,526  INFO Counter:69 [PersonPrepareForSim] handled person # 2048
2021-11-10T17:31:52,554  INFO Counter:69 [PersonPrepareForSim] handled person # 4096
2021-11-10T17:31:52,684  INFO Counter:69 [PersonPrepareForSim] handled person # 8192
2021-11-10T17:31:52,783  INFO Counter:69 [PersonPrepareForSim] handled person # 16384
2021-11-10T17:31:52,863  INFO Counter:74 [PersonPrepareForSim] handled person # 22752
2021-11-10T17:31:52,873  INFO MobsimListenerManager:49 calling addQueueSimulationListener
2021-11-10T17:31:52,873  INFO MobsimListenerManager:53   assigned class org.matsim.core.mobsim.framework.listeners.MobsimListener to interface org.matsim.core.mobsim.framework.listeners.MobsimBeforeCleanupListener
2021-11-10T17:31:52,873  INFO MobsimListenerManager:53   assigned class org.matsim.core.mobsim.framework.listeners.MobsimListener to interface org.matsim.contrib.dvrp.trafficmonitoring.DvrpOfflineTravelTimeEstimator
2021-11-10T17:31:52,874  INFO MobsimListenerManager:53   assigned class org.matsim.core.mobsim.framework.listeners.MobsimListener to interface org.matsim.core.mobsim.framework.listeners.MobsimListener
2021-11-10T17:31:52,874  INFO MobsimListenerManager:49 calling addQueueSimulationListener
2021-11-10T17:31:52,874  INFO MobsimListenerManager:53   assigned class org.matsim.core.mobsim.framework.listeners.MobsimListener to interface org.matsim.core.mobsim.framework.listeners.MobsimInitializedListener
2021-11-10T17:31:52,874  INFO MobsimListenerManager:53   assigned class org.matsim.core.mobsim.framework.listeners.MobsimListener to interface org.matsim.vis.snapshotwriters.SnapshotWriterManager
2021-11-10T17:31:52,874  INFO MobsimListenerManager:53   assigned class org.matsim.core.mobsim.framework.listeners.MobsimListener to interface org.matsim.core.mobsim.framework.listeners.MobsimBeforeCleanupListener
2021-11-10T17:31:52,874  INFO MobsimListenerManager:53   assigned class org.matsim.core.mobsim.framework.listeners.MobsimListener to interface org.matsim.core.mobsim.framework.listeners.MobsimAfterSimStepListener
2021-11-10T17:31:52,874  INFO MobsimListenerManager:53   assigned class org.matsim.core.mobsim.framework.listeners.MobsimListener to interface org.matsim.core.mobsim.framework.listeners.MobsimListener
2021-11-10T17:31:52,879  INFO SpeedyALTData:51 find dead ends...
2021-11-10T17:31:52,880  INFO SpeedyALTData:132 calculate landmarks...
2021-11-10T17:31:52,906  INFO SpeedyALTData:173 calculate min travelcost...
2021-11-10T17:31:53,260  INFO SpeedyALTData:51 find dead ends...
2021-11-10T17:31:53,260  INFO SpeedyALTData:132 calculate landmarks...
2021-11-10T17:31:53,284  INFO SpeedyALTData:173 calculate min travelcost...
2021-11-10T17:31:53,294  INFO EventsManagerImpl:160 adding Event-Handler: org.matsim.contrib.dvrp.passenger.DefaultPassengerEngine
2021-11-10T17:31:53,294  INFO EventsManagerImpl:166   org.matsim.contrib.dvrp.passenger.PassengerEngine
2021-11-10T17:31:53,294  INFO EventsManagerImpl:166   org.matsim.contrib.dvrp.passenger.PassengerRequestRejectedEventHandler
2021-11-10T17:31:53,294  INFO EventsManagerImpl:227     > org.matsim.contrib.dvrp.passenger.PassengerRequestRejectedEvent
2021-11-10T17:31:53,294  INFO EventsManagerImpl:176 
2021-11-10T17:31:53,294  INFO EventsManagerImpl:160 adding Event-Handler: org.matsim.contrib.dvrp.passenger.DefaultPassengerEngine
2021-11-10T17:31:53,294  INFO EventsManagerImpl:166   org.matsim.contrib.dvrp.passenger.PassengerEngine
2021-11-10T17:31:53,294  INFO EventsManagerImpl:166   org.matsim.contrib.dvrp.passenger.PassengerRequestRejectedEventHandler
2021-11-10T17:31:53,294  INFO EventsManagerImpl:227     > org.matsim.contrib.dvrp.passenger.PassengerRequestRejectedEvent
2021-11-10T17:31:53,294  INFO EventsManagerImpl:176 
2021-11-10T17:31:53,294  INFO QSimProvider:115 Added MobsimEngine class org.matsim.core.mobsim.qsim.ActivityEngineDefaultImpl
2021-11-10T17:31:53,294  INFO QSimProvider:121 Added Activityhandler class org.matsim.core.mobsim.qsim.ActivityEngineDefaultImpl
2021-11-10T17:31:53,294  INFO QSimProvider:127 Added DepartureHandler class org.matsim.core.mobsim.qsim.qnetsimengine.VehicularDepartureHandler
2021-11-10T17:31:53,294  INFO QSimProvider:115 Added MobsimEngine class org.matsim.core.mobsim.qsim.qnetsimengine.QNetsimEngineWithThreadpool
2021-11-10T17:31:53,294  INFO QSimProvider:115 Added MobsimEngine class org.matsim.core.mobsim.qsim.DefaultTeleportationEngine
2021-11-10T17:31:53,295  INFO QSimProvider:127 Added DepartureHandler class org.matsim.core.mobsim.qsim.DefaultTeleportationEngine
2021-11-10T17:31:53,295  INFO QSimProvider:133 Added AgentSource class org.matsim.core.mobsim.qsim.agents.PopulationAgentSource
2021-11-10T17:31:53,295  INFO MobsimListenerManager:49 calling addQueueSimulationListener
2021-11-10T17:31:53,295  INFO MobsimListenerManager:53   assigned class org.matsim.core.mobsim.framework.listeners.MobsimListener to interface org.matsim.core.mobsim.framework.listeners.MobsimBeforeSimStepListener
2021-11-10T17:31:53,295  INFO MobsimListenerManager:53   assigned class org.matsim.core.mobsim.framework.listeners.MobsimListener to interface org.matsim.core.mobsim.qsim.messagequeueengine.MessageQueueEngine
2021-11-10T17:31:53,295  INFO MobsimListenerManager:53   assigned class org.matsim.core.mobsim.framework.listeners.MobsimListener to interface org.matsim.core.mobsim.framework.listeners.MobsimListener
2021-11-10T17:31:53,295  INFO QSimProvider:139 Added MobsimListener class org.matsim.core.mobsim.qsim.messagequeueengine.MessageQueueEngine
2021-11-10T17:31:53,295  INFO QSimProvider:115 Added MobsimEngine class org.matsim.contrib.dynagent.run.DynActivityEngine
2021-11-10T17:31:53,295  INFO QSimProvider:121 Added Activityhandler class org.matsim.contrib.dynagent.run.DynActivityEngine
2021-11-10T17:31:53,295  WARN EditTrips:115 no TransitStopAgentTracker found in qsim. Replanning of pt/transit legs will not work properly and will likely fail.
2021-11-10T17:31:53,295  INFO QSimProvider:115 Added MobsimEngine class org.matsim.core.mobsim.qsim.PreplanningEngine
2021-11-10T17:31:53,295  INFO QSimProvider:133 Added AgentSource class org.matsim.contrib.dvrp.vrpagent.VrpAgentSource
2021-11-10T17:31:53,295  INFO QSimProvider:115 Added MobsimEngine class org.matsim.contrib.dvrp.passenger.DefaultPassengerEngine
2021-11-10T17:31:53,295  INFO QSimProvider:127 Added DepartureHandler class org.matsim.contrib.dvrp.passenger.DefaultPassengerEngine
2021-11-10T17:31:53,295  INFO MobsimListenerManager:49 calling addQueueSimulationListener
2021-11-10T17:31:53,295  INFO MobsimListenerManager:53   assigned class org.matsim.core.mobsim.framework.listeners.MobsimListener to interface org.matsim.core.mobsim.framework.listeners.MobsimBeforeSimStepListener
2021-11-10T17:31:53,295  INFO MobsimListenerManager:53   assigned class org.matsim.core.mobsim.framework.listeners.MobsimListener to interface org.matsim.contrib.taxi.optimizer.TaxiOptimizer
2021-11-10T17:31:53,295  INFO MobsimListenerManager:53   assigned class org.matsim.core.mobsim.framework.listeners.MobsimListener to interface org.matsim.contrib.taxi.optimizer.DefaultTaxiOptimizer
2021-11-10T17:31:53,295  INFO MobsimListenerManager:53   assigned class org.matsim.core.mobsim.framework.listeners.MobsimListener to interface org.matsim.core.mobsim.framework.listeners.MobsimListener
2021-11-10T17:31:53,295  INFO MobsimListenerManager:53   assigned class org.matsim.core.mobsim.framework.listeners.MobsimListener to interface org.matsim.contrib.taxi.optimizer.rules.RuleBasedTaxiOptimizer
2021-11-10T17:31:53,295  INFO QSimProvider:139 Added MobsimListener class org.matsim.contrib.taxi.optimizer.rules.RuleBasedTaxiOptimizer
2021-11-10T17:31:53,295  INFO MobsimListenerManager:49 calling addQueueSimulationListener
2021-11-10T17:31:53,295  INFO MobsimListenerManager:53   assigned class org.matsim.core.mobsim.framework.listeners.MobsimListener to interface org.matsim.core.mobsim.framework.listeners.MobsimBeforeCleanupListener
2021-11-10T17:31:53,295  INFO MobsimListenerManager:53   assigned class org.matsim.core.mobsim.framework.listeners.MobsimListener to interface org.matsim.core.mobsim.framework.listeners.MobsimListener
2021-11-10T17:31:53,295  INFO MobsimListenerManager:53   assigned class org.matsim.core.mobsim.framework.listeners.MobsimListener to interface org.matsim.contrib.taxi.scheduler.TaxiScheduler
2021-11-10T17:31:53,295  INFO QSimProvider:139 Added MobsimListener class org.matsim.contrib.taxi.scheduler.TaxiScheduler
2021-11-10T17:31:53,295  INFO MobsimListenerManager:49 calling addQueueSimulationListener
2021-11-10T17:31:53,295  INFO MobsimListenerManager:53   assigned class org.matsim.core.mobsim.framework.listeners.MobsimListener to interface org.matsim.contrib.taxi.util.TaxiSimulationConsistencyChecker
2021-11-10T17:31:53,295  INFO MobsimListenerManager:53   assigned class org.matsim.core.mobsim.framework.listeners.MobsimListener to interface org.matsim.core.mobsim.framework.listeners.MobsimBeforeCleanupListener
2021-11-10T17:31:53,295  INFO MobsimListenerManager:53   assigned class org.matsim.core.mobsim.framework.listeners.MobsimListener to interface org.matsim.core.mobsim.framework.listeners.MobsimListener
2021-11-10T17:31:53,295  INFO QSimProvider:139 Added MobsimListener class org.matsim.contrib.taxi.util.TaxiSimulationConsistencyChecker
2021-11-10T17:31:53,295  INFO MobsimListenerManager:49 calling addQueueSimulationListener
2021-11-10T17:31:53,295  INFO MobsimListenerManager:53   assigned class org.matsim.core.mobsim.framework.listeners.MobsimListener to interface org.matsim.core.mobsim.framework.listeners.MobsimBeforeSimStepListener
2021-11-10T17:31:53,295  INFO MobsimListenerManager:53   assigned class org.matsim.core.mobsim.framework.listeners.MobsimListener to interface org.matsim.core.mobsim.framework.listeners.MobsimBeforeCleanupListener
2021-11-10T17:31:53,295  INFO MobsimListenerManager:53   assigned class org.matsim.core.mobsim.framework.listeners.MobsimListener to interface org.matsim.contrib.common.timeprofile.TimeProfileCollector
2021-11-10T17:31:53,295  INFO MobsimListenerManager:53   assigned class org.matsim.core.mobsim.framework.listeners.MobsimListener to interface org.matsim.core.mobsim.framework.listeners.MobsimListener
2021-11-10T17:31:53,296  INFO QSimProvider:139 Added MobsimListener class org.matsim.contrib.common.timeprofile.TimeProfileCollector
2021-11-10T17:31:53,377  INFO AbstractQNetsimEngine:427 Assigned 4477 nodes and 10729 links to QSimEngineRunner #0
2021-11-10T17:31:53,391  INFO AbstractQNetsimEngine:365 SIMULATION (QNetsimEngine) AT 00:00:00 : #links=0 #nodes=0
2021-11-10T17:31:53,398  INFO QSim:553 SIMULATION (NEW QSim) AT 00:00:00 : #Veh=27752 lost=0 simT=0.0s realT=0s; (s/r): 0.0
2021-11-10T17:31:53,969  INFO AbstractQNetsimEngine:365 SIMULATION (QNetsimEngine) AT 01:00:00 : #links=0 #nodes=0
2021-11-10T17:31:53,969  INFO QSim:553 SIMULATION (NEW QSim) AT 01:00:00 : #Veh=27752 lost=0 simT=3600.0s realT=1s; (s/r): 3600.0
2021-11-10T17:31:54,516  INFO AbstractQNetsimEngine:365 SIMULATION (QNetsimEngine) AT 02:00:00 : #links=0 #nodes=0
2021-11-10T17:31:54,516  INFO QSim:553 SIMULATION (NEW QSim) AT 02:00:00 : #Veh=27752 lost=0 simT=7200.0s realT=1s; (s/r): 7200.0
2021-11-10T17:31:55,058  INFO AbstractQNetsimEngine:365 SIMULATION (QNetsimEngine) AT 03:00:00 : #links=0 #nodes=0
2021-11-10T17:31:55,058  INFO QSim:553 SIMULATION (NEW QSim) AT 03:00:00 : #Veh=27752 lost=0 simT=10800.0s realT=2s; (s/r): 5400.0
2021-11-10T17:31:55,594  INFO AbstractQNetsimEngine:365 SIMULATION (QNetsimEngine) AT 04:00:00 : #links=0 #nodes=0
2021-11-10T17:31:55,594  INFO QSim:553 SIMULATION (NEW QSim) AT 04:00:00 : #Veh=27752 lost=0 simT=14400.0s realT=2s; (s/r): 7200.0
2021-11-10T17:31:56,155  INFO AbstractQNetsimEngine:365 SIMULATION (QNetsimEngine) AT 05:00:00 : #links=0 #nodes=0
2021-11-10T17:31:56,155  INFO QSim:553 SIMULATION (NEW QSim) AT 05:00:00 : #Veh=27752 lost=0 simT=18000.0s realT=3s; (s/r): 6000.0
2021-11-10T17:31:56,715  INFO AbstractQNetsimEngine:365 SIMULATION (QNetsimEngine) AT 06:00:00 : #links=1 #nodes=0
2021-11-10T17:31:56,715  INFO QSim:553 SIMULATION (NEW QSim) AT 06:00:00 : #Veh=27752 lost=0 simT=21600.0s realT=3s; (s/r): 7200.0
2021-11-10T17:31:59,068  INFO AbstractQNetsimEngine:365 SIMULATION (QNetsimEngine) AT 07:00:00 : #links=1063 #nodes=209
2021-11-10T17:31:59,069  INFO QSim:553 SIMULATION (NEW QSim) AT 07:00:00 : #Veh=27752 lost=0 simT=25200.0s realT=6s; (s/r): 4200.0
2021-11-10T17:32:05,813  INFO AbstractQNetsimEngine:365 SIMULATION (QNetsimEngine) AT 08:00:00 : #links=1551 #nodes=353
2021-11-10T17:32:05,813  INFO QSim:553 SIMULATION (NEW QSim) AT 08:00:00 : #Veh=27752 lost=0 simT=28800.0s realT=12s; (s/r): 2400.0
2021-11-10T17:32:11,796  INFO AbstractQNetsimEngine:365 SIMULATION (QNetsimEngine) AT 09:00:00 : #links=538 #nodes=82
2021-11-10T17:32:11,797  INFO QSim:553 SIMULATION (NEW QSim) AT 09:00:00 : #Veh=27752 lost=0 simT=32400.0s realT=18s; (s/r): 1800.0
2021-11-10T17:32:13,221  INFO AbstractQNetsimEngine:365 SIMULATION (QNetsimEngine) AT 10:00:00 : #links=18 #nodes=0
2021-11-10T17:32:13,221  INFO QSim:553 SIMULATION (NEW QSim) AT 10:00:00 : #Veh=27752 lost=0 simT=36000.0s realT=20s; (s/r): 1800.0
2021-11-10T17:32:14,003  INFO AbstractQNetsimEngine:365 SIMULATION (QNetsimEngine) AT 11:00:00 : #links=0 #nodes=0
2021-11-10T17:32:14,003  INFO QSim:553 SIMULATION (NEW QSim) AT 11:00:00 : #Veh=27752 lost=0 simT=39600.0s realT=21s; (s/r): 1885.7142857142858
2021-11-10T17:32:14,798  INFO AbstractQNetsimEngine:365 SIMULATION (QNetsimEngine) AT 12:00:00 : #links=0 #nodes=0
2021-11-10T17:32:14,798  INFO QSim:553 SIMULATION (NEW QSim) AT 12:00:00 : #Veh=27752 lost=0 simT=43200.0s realT=21s; (s/r): 2057.1428571428573
2021-11-10T17:32:15,561  INFO AbstractQNetsimEngine:365 SIMULATION (QNetsimEngine) AT 13:00:00 : #links=0 #nodes=0
2021-11-10T17:32:15,561  INFO QSim:553 SIMULATION (NEW QSim) AT 13:00:00 : #Veh=27752 lost=0 simT=46800.0s realT=22s; (s/r): 2127.2727272727275
2021-11-10T17:32:16,266  INFO AbstractQNetsimEngine:365 SIMULATION (QNetsimEngine) AT 14:00:00 : #links=26 #nodes=6
2021-11-10T17:32:16,266  INFO QSim:553 SIMULATION (NEW QSim) AT 14:00:00 : #Veh=27749 lost=0 simT=50400.0s realT=23s; (s/r): 2191.304347826087
2021-11-10T17:32:18,741  INFO MemoryObserver:41 used RAM: 1950 MB  free: 481 MB  total: 2432 MB
2021-11-10T17:32:18,794  INFO AbstractQNetsimEngine:365 SIMULATION (QNetsimEngine) AT 15:00:00 : #links=882 #nodes=173
2021-11-10T17:32:18,795  INFO QSim:553 SIMULATION (NEW QSim) AT 15:00:00 : #Veh=26146 lost=0 simT=54000.0s realT=25s; (s/r): 2160.0
2021-11-10T17:32:24,904  INFO AbstractQNetsimEngine:365 SIMULATION (QNetsimEngine) AT 16:00:00 : #links=1408 #nodes=261
2021-11-10T17:32:24,904  INFO QSim:553 SIMULATION (NEW QSim) AT 16:00:00 : #Veh=18254 lost=0 simT=57600.0s realT=32s; (s/r): 1800.0
2021-11-10T17:32:30,339  INFO AbstractQNetsimEngine:365 SIMULATION (QNetsimEngine) AT 17:00:00 : #links=723 #nodes=121
2021-11-10T17:32:30,340  INFO QSim:553 SIMULATION (NEW QSim) AT 17:00:00 : #Veh=9040 lost=0 simT=61200.0s realT=37s; (s/r): 1654.054054054054
2021-11-10T17:32:32,120  INFO AbstractQNetsimEngine:365 SIMULATION (QNetsimEngine) AT 18:00:00 : #links=94 #nodes=12
2021-11-10T17:32:32,121  INFO QSim:553 SIMULATION (NEW QSim) AT 18:00:00 : #Veh=5627 lost=0 simT=64800.0s realT=39s; (s/r): 1661.5384615384614
2021-11-10T17:32:33,158  INFO AbstractQNetsimEngine:365 SIMULATION (QNetsimEngine) AT 19:00:00 : #links=18 #nodes=0
2021-11-10T17:32:33,158  INFO QSim:553 SIMULATION (NEW QSim) AT 19:00:00 : #Veh=5073 lost=0 simT=68400.0s realT=40s; (s/r): 1710.0
2021-11-10T17:32:34,029  INFO AbstractQNetsimEngine:365 SIMULATION (QNetsimEngine) AT 20:00:00 : #links=3 #nodes=0
2021-11-10T17:32:34,030  INFO QSim:553 SIMULATION (NEW QSim) AT 20:00:00 : #Veh=5010 lost=0 simT=72000.0s realT=41s; (s/r): 1756.0975609756097
