2020-10-04T23:27:07,278  INFO Gbl:63 JVM: 14.0.1; Oracle Corporation; mixed mode, sharing; 64-bit
2020-10-04T23:27:07,279  INFO Gbl:67 OS: Windows 10; 10.0; amd64
2020-10-04T23:27:07,279  INFO Gbl:70 CPU cores: 8
2020-10-04T23:27:07,282  INFO Gbl:71 max. Memory: 8170.0MB (8566865920B)
2020-10-04T23:27:07,283  INFO Gbl:109 MATSim-Build: r0e13a2639be6bc963291ad9988ed61c1e975d849 (2020-06-04 17:07:56)
2020-10-04T23:27:07,288  INFO ControlerListenerManagerImpl:107 calling notifyStartup on org.matsim.guice.DependencyGraphControlerListener
2020-10-04T23:27:07,291  INFO MemoryObserver:41 used RAM: 17 MB  free: 30 MB  total: 48 MB
2020-10-04T23:27:07,624  INFO ControlerListenerManagerImpl:107 calling notifyStartup on org.matsim.counts.CountsControlerListener
2020-10-04T23:27:07,625  INFO ControlerListenerManagerImpl:107 calling notifyStartup on org.matsim.analysis.ModeStatsControlerListener
2020-10-04T23:27:07,625  INFO ControlerListenerManagerImpl:107 calling notifyStartup on org.matsim.analysis.ScoreStatsControlerListener
2020-10-04T23:27:07,626  INFO ControlerListenerManagerImpl:110 all ControlerStartupListeners called.
2020-10-04T23:27:07,627  INFO ControlerUtils:79 config dump before iterations start
2020-10-04T23:27:07,651  INFO ControlerUtils:83 

<?xml version="1.0" encoding="UTF-8"?>
<!DOCTYPE config SYSTEM "http://www.matsim.org/files/dtd/config_v2.dtd">
<config>
	<module name="JDEQSim" >
		<param name="carSize" value="7.5" />
		<param name="endTime" value="undefined" />
		<param name="flowCapacityFactor" value="1.0" />
		<param name="gapTravelSpeed" value="15.0" />
		<param name="minimumInFlowCapacity" value="1800.0" />
		<param name="squeezeTime" value="1800.0" />
		<param name="storageCapacityFactor" value="1.0" />
	</module>
	<module name="TimeAllocationMutator" >
		<!-- Default:true; Defines whether time mutation changes an activity's duration. -->
		<param name="mutationAffectsDuration" value="true" />
		<!-- Default:1800.0; Defines how many seconds a time mutation can maximally shift a time. -->
		<param name="mutationRange" value="1800.0" />
	</module>
	<module name="changeMode" >
		<!-- Defines whether car availability is considered be considered or not. An agent has no car only if it has no license, or never access to a car. Default: true -->
		<param name="ignoreCarAvailability" value="true" />
		<!-- Defines the mode switch behavior. Possible values [fromAllModesToSpecifiedModes, fromSpecifiedModesToSpecifiedModes] Default: fromSpecifiedModesToSpecifiedModes. -->
		<param name="modeSwitchBehavior" value="fromSpecifiedModesToSpecifiedModes" />
		<!-- Defines all the modes available, including chain-based modes, seperated by commas -->
		<param name="modes" value="car,pt" />
	</module>
	<module name="controler" >
		<!-- Compression algorithm to use when writing out data to files. Possible values: [none, gzip, lz4, zst] -->
		<param name="compressionType" value="gzip" />
		<!-- Sets whether graphs showing some analyses should automatically be generated during the simulation. The generation of graphs usually takes a small amount of time that does not have any weight in big simulations, but add a significant overhead in smaller runs or in test cases where the graphical output is not even requested. -->
		<param name="createGraphs" value="true" />
		<!-- true if at the end of a run, plans, network, config etc should be dumped to a file -->
		<param name="dumpDataAtEnd" value="true" />
		<!-- Default=false. If enabled, the router takes travel times needed for turning moves into account. Cannot be used if the (Fast)AStarLandmarks routing or TravelTimeCalculator.separateModes is enabled. -->
		<param name="enableLinkToLinkRouting" value="false" />
		<!-- Default=xml; Specifies the file format for writing events. Currently supported: [xml, pb, json]
		Multiple values can be specified separated by commas (','). -->
		<param name="eventsFileFormat" value="xml" />
		<!-- Default=0. First Iteration of a simulation. -->
		<param name="firstIteration" value="0" />
		<!-- Default=1000. Last Iteration of a simulation. -->
		<param name="lastIteration" value="0" />
		<!-- Defines which mobility simulation will be used. Currently supported: qsim JDEQSim 
		Depending on the chosen mobsim, you'll have to add additional config modules to configure the corresponding mobsim.
		For 'qsim', add a module 'qsim' to the config. -->
		<param name="mobsim" value="qsim" />
		<param name="outputDirectory" value="output/pigou_mixed_traffic" />
		<!-- Possible values: failIfDirectoryExists, overwriteExistingFiles, deleteDirectoryIfExists -->
		<param name="overwriteFiles" value="deleteDirectoryIfExists" />
		<!-- The type of routing (least cost path) algorithm used, may have the values: Dijkstra, FastDijkstra, AStarLandmarks or FastAStarLandmarks -->
		<param name="routingAlgorithmType" value="AStarLandmarks" />
		<!-- An identifier for the current run which is used as prefix for output files and mentioned in output xml files etc. -->
		<param name="runId" value="null" />
		<!-- Comma-separated list of visualizer output file formats. `transims', `googleearth', and `otfvis'. -->
		<param name="snapshotFormat" value="" />
		<!-- iterationNumber % writeEventsInterval == 0 defines in which iterations events are written to a file. `0' disables events writing completely. -->
		<param name="writeEventsInterval" value="10" />
		<!-- iterationNumber % writePlansInterval == 0 defines (hopefully) in which iterations plans are written to a file. `0' disables plans writing completely.  Some plans in early iterations are always written -->
		<param name="writePlansInterval" value="10" />
		<!-- iterationNumber % writeSnapshotsInterval == 0 defines in which iterations snapshots are written to a file. `0' disables snapshots writing completely -->
		<param name="writeSnapshotsInterval" value="1" />
		<!-- iterationNumber % writeEventsInterval == 0 defines in which iterations trips CSV are written to a file. `0' disables trips writing completely. -->
		<param name="writeTripsInterval" value="10" />
	</module>
	<module name="counts" >
		<!-- Transport modes that will be respected for the counts comparison. 'car' is default, which includes also bussed from the pt simulation module. Use this parameter in combination with 'filterModes' = true! -->
		<param name="analyzedModes" value="car" />
		<!-- Specifies over how many iterations the link volumes should be averaged that are used for the counts comparison. Use 1 or 0 to only use the link volumes of a single iteration. This values cannot be larger than the value specified for writeCountsInterval -->
		<param name="averageCountsOverIterations" value="5" />
		<!-- factor by which to re-scale the simulated values.  necessary when simulation runs with something different from 100%.  needs to be adapted manually -->
		<param name="countsScaleFactor" value="1.0" />
		<!-- distance to distanceFilterCenterNode to include counting stations. The unit of distance is the Euclidean distance implied by the coordinate system -->
		<param name="distanceFilter" value="null" />
		<!-- node id for center node of distance filter -->
		<param name="distanceFilterCenterNode" value="null" />
		<!-- If true, link counts from legs performed on modes not included in the 'analyzedModes' parameter are ignored. -->
		<param name="filterModes" value="false" />
		<!-- The Coordinates Reference System in which the coordinates are expressed in the input file. At import, the coordinates will be converted to the coordinate system defined in "global", and willbe converted back at export. If not specified, no conversion happens. -->
		<param name="inputCRS" value="null" />
		<!-- input file name to counts package -->
		<param name="inputCountsFile" value="null" />
		<!-- possible values: `html', `kml', `txt', `all' -->
		<param name="outputformat" value="txt" />
		<!-- Specifies how often the counts comparison should be calculated and written. -->
		<param name="writeCountsInterval" value="10" />
	</module>
	<module name="dvrp" >
		<!-- Mode of which the network will be used for throwing events and hence calculating travel times. Default is car. -->
		<param name="mobsimMode" value="car" />
		<!-- Set of modes of which the network will be used for DVRP travel time estimation and routing DVRP vehicles. Each specific DVRP mode may use a subnetwork of this network for routing vehicles (e.g. DRT buses travelling only along a specified links or serving a limited area). Default is "car" (i.e. single-element set of modes), i.e. the car network is used. Empty value "" (i.e. empty set of modes) means no network filtering, i.e. the original scenario.network is used -->
		<param name="networkModes" value="car" />
		<!-- Used for OFFLINE estimation of travel times for VrpOptimizer by means of the exponential moving average. The weighting decrease, alpha, must be in (0,1]. We suggest small values of alpha, e.g. 0.05. The averaging starts from the initial travel time estimates. If not provided, the free-speed TTs is used as the initial estimates -->
		<param name="travelTimeEstimationAlpha" value="0.05" />
		<!-- Used for ONLINE estimation of travel times for VrpOptimizer by combining WithinDayTravelTime and DvrpOfflineTravelTimeEstimator. The beta coefficient is provided in seconds and should be either 0 (no online estimation) or positive (mixed online-offline estimation). For 'beta = 0', only the offline estimate is used: 'onlineTT(t) = offlineTT(t)', where 'offlineTT(t)' in the offline estimate for TT at time 't', For 'beta > 0', estimating future TTs at time 't', uses the currently observed TT to correct the offline estimates is made: where 'currentTT' is the currently observed TT, and 'correction = min(1, max(0, 1 - (time - currentTime) / beta))' The rule is that correction decreases linearly from 1 (when 'time = currentTime') to 0 (when 'time = currentTime + beta' For 'time > currentTime + beta' correction is 0, whereas if 'time < currentTime' it is 1. If beta is sufficiently large, 'beta >> 0', only the currently observed TT is used. -->
		<param name="travelTimeEstimationBeta" value="0.0" />
	</module>
	<module name="facilities" >
		<!-- This defines how facilities should be created. Possible values: none fromFile setInScenario onePerActivityLinkInPlansFile onePerActivityLinkInPlansFileExceptWhenCoordinatesAreGiven onePerActivityLocationInPlansFile  -->
		<param name="facilitiesSource" value="none" />
		<!-- A prefix to be used for auto-generated IDs. -->
		<param name="idPrefix" value="f_auto_" />
		<!-- The Coordinates Reference System in which the coordinates are expressed in the input file. At import, the coordinates will be converted to the coordinate system defined in "global", and willbe converted back at export. If not specified, no conversion happens. -->
		<param name="inputCRS" value="null" />
		<param name="inputFacilitiesFile" value="null" />
		<param name="inputFacilityAttributesFile" value="null" />
		<param name="insistingOnUsingDeprecatedFacilitiesAttributeFile" value="false" />
	</module>
	<module name="global" >
		<param name="coordinateSystem" value="Atlantis" />
		<param name="defaultDelimiter" value=";" />
		<param name="insistingOnDeprecatedConfigVersion" value="true" />
		<!-- "global" number of threads.  This number is used, e.g., for replanning, but NOT in the mobsim.  This can typically be set to as many cores as you have available, or possibly even slightly more. -->
		<param name="numberOfThreads" value="2" />
		<param name="randomSeed" value="4711" />
	</module>
	<module name="households" >
		<param name="inputFile" value="null" />
		<param name="inputHouseholdAttributesFile" value="null" />
		<param name="insistingOnUsingDeprecatedHouseholdsAttributeFile" value="false" />
	</module>
	<module name="linkStats" >
		<!-- Specifies over how many iterations the link volumes should be averaged that are used for the link statistics. Use 1 or 0 to only use the link volumes of a single iteration. This values cannot be larger than the value specified for writeLinkStatsInterval -->
		<param name="averageLinkStatsOverIterations" value="5" />
		<!-- Specifies how often the link stats should be calculated and written. Use 0 to disable the generation of link stats. -->
		<param name="writeLinkStatsInterval" value="10" />
	</module>
	<module name="multiModeTaxi" >
		<parameterset type="taxi" >
			<!-- Used in AStarEuclidean for shortest path search for occupied drives. Default value is 1.0. Values above 1.0 (typically, 1.5 to 3.0) speed up search, but at the cost of obtaining longer paths -->
			<param name="AStarEuclideanOverdoFactor" value="2.0" />
			<!-- Specifies whether the simulation should interrupt if not all requests were performed when an interation ends. Otherwise, a warning is given. True by default. -->
			<param name="breakIfNotAllRequestsServed" value="true" />
			<!-- If true, the startLink is changed to last link in the current schedule, so the taxi starts the next day at the link where it stopped operating the day before. False by default. -->
			<param name="changeStartLinkToLastLinkInSchedule" value="false" />
			<!-- If false, the drop-off location remains unknown to the optimizer and scheduler until the end of pickup. False by default. -->
			<param name="destinationKnown" value="false" />
			<!-- If true, detailed hourly taxi stats are dumped after each iteration. False by default. -->
			<param name="detailedStats" value="true" />
			<!-- Dropoff duration. Must be positive. -->
			<param name="dropoffDuration" value="60.0" />
			<!-- Mode which will be handled by PassengerEngine and VrpOptimizer (passengers'/customers' perspective) -->
			<param name="mode" value="taxi" />
			<!-- If true, vehicles are (GPS-like) monitored while moving. This helps in getting more accurate estimates on the time of arrival. Online tracking is necessary for vehicle diversion. False by default. -->
			<param name="onlineVehicleTracker" value="false" />
			<!-- Pickup duration. Must be positive. -->
			<param name="pickupDuration" value="120.0" />
			<!-- An XML file specifying the taxi fleet. The file format according to dvrp_vehicles_v1.dtd -->
			<param name="taxisFile" value="taxis-25.xml" />
			<!-- If true, writes time profiles of vehicle statuses (i.e. current task type) and the number of unplanned requests are written to a text file (taxi_status_time_profiles) and saved as plots. False by default. -->
			<param name="timeProfiles" value="true" />
			<!-- Limit the operation of vehicles to links (of the 'dvrp_routing' network) with 'allowedModes' containing this 'mode'. For backward compatibility, the value is set to false by default -- this means that the vehicles are allowed to operate on all links of the 'dvrp_routing' network. The 'dvrp_routing' is defined by DvrpConfigGroup.networkModes) -->
			<param name="useModeFilteredSubnetwork" value="false" />
			<!-- If true, vehicles can be diverted during empty trips. Requires online tracking. False by default. -->
			<param name="vehicleDiversion" value="false" />
			<parameterset type="RuleBasedTaxiOptimizer" >
				<!-- The side length of square zones used in zonal registers of idle vehicles and open requests. The default value is 1000 m. This value is good for urban areas. For large areas with sparsely distributed taxis and low taxi demand, you may consider using a bigger cell size. On the other hand, if 'nearestRequestsLimit' or 'nearestVehiclesLimit' are very low, a smaller cell size may work better. -->
				<param name="cellSize" value="1000.0" />
				<!-- Optimisation goal, one of: MIN_WAIT_TIME (aka 'nearest idle taxi', a request-initiated dispatch), MIN_PICKUP_TIME (aka 'nearest open request', a vehicle-initiated dispatch), DEMAND_SUPPLY_EQUIL (aka 'demand-supply balancing' or 'nearest idle taxi/nearest open request'; switches between two modes depending on the demand-supply balance). The default and recommended value is DEMAND_SUPPLY_EQUIL. See: M. Maciejewski, J. Bischoff, K. Nagel: An assignment-based approach to efficient real-time city-scale taxi dispatching. IEEE Intelligent Systems, 2016. -->
				<param name="goal" value="DEMAND_SUPPLY_EQUIL" />
				<!-- Limits the number of open requests considered during a vehicle-initiated dispatch to 'nearestRequestsLimit' nearest to a given location using pre-calculated distances between zone centroids. Used to speed up computations. Values 20 to 40 make a good trade-off between computational speed and quality of results. To turn off this feature - specify a sufficiently big number (not recommended). The default value is 30. -->
				<param name="nearestRequestsLimit" value="30" />
				<!-- Limits the number of idle vehicles considered during a request-initiated dispatch to 'nearestVehiclesLimit' nearest to a given location using pre-calculated distances between zone centroids. Used to speed up computations. Values 20 to 40 make a good trade-off between computational speed and quality of results. To turn off this feature - specify a sufficiently big number (not recommended). The default value is 30. -->
				<param name="nearestVehiclesLimit" value="30" />
				<!-- Specifies how often the reoptimization algorithm is executed. Must be a positive integer value. Smaller values mean lower reaction time. However, algorithms that find more than 1 taxi-request matching in each run, such as AssignmentTaxiOptimizer, may produce better results if new requests are buffered over a longer period, e.g. 10 or 30 seconds. Therefore, the default value is algorithm dependent. -->
				<param name="reoptimizationTimeStep" value="1" />
			</parameterset>
		</parameterset>
	</module>
	<module name="network" >
		<!-- The Coordinates Reference System in which the coordinates are expressed in the input file. At import, the coordinates will be converted to the coordinate system defined in "global", and willbe converted back at export. If not specified, no conversion happens. -->
		<param name="inputCRS" value="null" />
		<param name="inputChangeEventsFile" value="null" />
		<param name="inputNetworkFile" value="network.xml" />
		<param name="laneDefinitionsFile" value="null" />
		<param name="timeVariantNetwork" value="false" />
	</module>
	<module name="otfvis" >
		<!-- The (initial) size of the agents.  Only a range of numbers is allowed, otherwise otfvis aborts rather ungracefully, or displays no agents at all. -->
		<param name="agentSize" value="120.0" />
		<!-- coloring scheme for otfvis.  Currently (2012) allowed values: standard bvg bvg2 byId gtfs taxicab infection -->
		<param name="coloringScheme" value="taxicab" />
		<!-- If non-moving items (e.g. agents at activities, at bus stops, etc.) should be showed.  May affect all non-moving items. -->
		<param name="drawNonMovingItems" value="true" />
		<param name="drawTransitFacilities" value="true" />
		<param name="drawTransitFacilityIds" value="true" />
		<param name="leftMouseFunc" value="Zoom" />
		<!-- The (initial) width of the links of the network. Use positive floating point values. -->
		<param name="linkWidth" value="30.0" />
		<!-- Link width is proportional to `numberOfLanes' or to `capacity'. -->
		<param name="linkwidthIsProportionalTo" value="numberOfLanes" />
		<!-- URL to get WMS tiles from. For a local GeoServer instance, use http://localhost:8080/geoserver/wms?service=WMS& -->
		<param name="mapBaseURL" value="" />
		<!-- The WMS layer to display. For GeoServer and a layer called clipped in workspace mz, use mz:clipped -->
		<param name="mapLayer" value="" />
		<!-- Render everything on top of map tiles. Default: From tiles.openstreetmap.org -->
		<param name="mapOverlayMode" value="false" />
		<param name="middleMouseFunc" value="Pan" />
		<param name="rightMouseFunc" value="Select" />
		<param name="showTeleportation" value="false" />
	</module>
	<module name="parallelEventHandling" >
		<!-- Estimated number of events during mobsim run. An optional optimization hint for the framework. -->
		<param name="estimatedNumberOfEvents" value="null" />
		<!-- Number of threads for parallel events handler. _null_ means the framework decides by itself. 0 is currently not possible. -->
		<param name="numberOfThreads" value="null" />
		<!-- If enabled, each event handler is assigned to its own thread. Note that enabling this feature disabled the numberOfThreads option! This feature is still experimental! -->
		<param name="oneThreadPerHandler" value="false" />
		<!-- If enabled, it is ensured that all events that are created during a time step of the mobility simulation are processed before the next time step is simulated. E.g. neccessary when within-day replanning is used. -->
		<param name="synchronizeOnSimSteps" value="true" />
	</module>
	<module name="planCalcScore" >
		<!-- logit model scale parameter. default: 1.  Has name and default value for historical reasons (see Bryan Raney's phd thesis). -->
		<param name="BrainExpBeta" value="2.0" />
		<param name="PathSizeLogitBeta" value="1.0" />
		<!-- fraction of iterations at which MSA score averaging is started. The matsim theory department suggests to use this together with switching off choice set innovation (where a similar switch exists), but it has not been tested yet. -->
		<param name="fractionOfIterationsToStartScoreMSA" value="null" />
		<!-- new_score = (1-learningRate)*old_score + learningRate * score_from_mobsim.  learning rates close to zero emulate score averaging, but slow down initial convergence -->
		<param name="learningRate" value="1.0" />
		<!-- There used to be a plateau between duration=0 and duration=zeroUtilityDuration. This caused durations to evolve to zero once they were below zeroUtilityDuration, causing problems.  Only use this switch if you need to be backwards compatible with some old results.  (changed nov'13) -->
		<param name="usingOldScoringBelowZeroUtilityDuration" value="false" />
		<!-- write a plans file in each iteration directory which contains what each agent actually did, and the score it received. -->
		<param name="writeExperiencedPlans" value="false" />
		<parameterset type="scoringParameters" >
			<param name="earlyDeparture" value="-0.0" />
			<param name="lateArrival" value="-18.0" />
			<param name="marginalUtilityOfMoney" value="1.0" />
			<param name="performing" value="6.0" />
			<param name="subpopulation" value="null" />
			<param name="utilityOfLineSwitch" value="-1.0" />
			<param name="waiting" value="-0.0" />
			<param name="waitingPt" value="-6.0" />
			<parameterset type="activityParams" >
				<param name="activityType" value="car interaction" />
				<param name="closingTime" value="undefined" />
				<param name="earliestEndTime" value="undefined" />
				<param name="latestStartTime" value="undefined" />
				<param name="minimalDuration" value="undefined" />
				<param name="openingTime" value="undefined" />
				<param name="priority" value="1.0" />
				<param name="scoringThisActivityAtAll" value="false" />
				<!-- typical duration of activity.  needs to be defined and non-zero.  in sec. -->
				<param name="typicalDuration" value="undefined" />
				<!-- method to compute score at typical duration.  Options: | uniform | relative | Use uniform for backwards compatibility (all activities same score; higher proba to drop long acts). -->
				<param name="typicalDurationScoreComputation" value="relative" />
			</parameterset>
			<parameterset type="activityParams" >
				<param name="activityType" value="pt interaction" />
				<param name="closingTime" value="undefined" />
				<param name="earliestEndTime" value="undefined" />
				<param name="latestStartTime" value="undefined" />
				<param name="minimalDuration" value="undefined" />
				<param name="openingTime" value="undefined" />
				<param name="priority" value="1.0" />
				<param name="scoringThisActivityAtAll" value="false" />
				<param name="typicalDuration" value="undefined" />
				<param name="typicalDurationScoreComputation" value="relative" />
			</parameterset>
			<parameterset type="activityParams" >
				<param name="activityType" value="bike interaction" />
				<param name="closingTime" value="undefined" />
				<param name="earliestEndTime" value="undefined" />
				<param name="latestStartTime" value="undefined" />
				<param name="minimalDuration" value="undefined" />
				<param name="openingTime" value="undefined" />
				<param name="priority" value="1.0" />
				<param name="scoringThisActivityAtAll" value="false" />
				<param name="typicalDuration" value="undefined" />
				<param name="typicalDurationScoreComputation" value="relative" />
			</parameterset>
			<parameterset type="activityParams" >
				<param name="activityType" value="drt interaction" />
				<param name="closingTime" value="undefined" />
				<param name="earliestEndTime" value="undefined" />
				<param name="latestStartTime" value="undefined" />
				<param name="minimalDuration" value="undefined" />
				<param name="openingTime" value="undefined" />
				<param name="priority" value="1.0" />
				<param name="scoringThisActivityAtAll" value="false" />
				<param name="typicalDuration" value="undefined" />
				<param name="typicalDurationScoreComputation" value="relative" />
			</parameterset>
			<parameterset type="activityParams" >
				<param name="activityType" value="taxi interaction" />
				<param name="closingTime" value="undefined" />
				<param name="earliestEndTime" value="undefined" />
				<param name="latestStartTime" value="undefined" />
				<param name="minimalDuration" value="undefined" />
				<param name="openingTime" value="undefined" />
				<param name="priority" value="1.0" />
				<param name="scoringThisActivityAtAll" value="false" />
				<param name="typicalDuration" value="undefined" />
				<param name="typicalDurationScoreComputation" value="relative" />
			</parameterset>
			<parameterset type="activityParams" >
				<param name="activityType" value="other interaction" />
				<param name="closingTime" value="undefined" />
				<param name="earliestEndTime" value="undefined" />
				<param name="latestStartTime" value="undefined" />
				<param name="minimalDuration" value="undefined" />
				<param name="openingTime" value="undefined" />
				<param name="priority" value="1.0" />
				<param name="scoringThisActivityAtAll" value="false" />
				<param name="typicalDuration" value="undefined" />
				<param name="typicalDurationScoreComputation" value="relative" />
			</parameterset>
			<parameterset type="activityParams" >
				<param name="activityType" value="walk interaction" />
				<param name="closingTime" value="undefined" />
				<param name="earliestEndTime" value="undefined" />
				<param name="latestStartTime" value="undefined" />
				<param name="minimalDuration" value="undefined" />
				<param name="openingTime" value="undefined" />
				<param name="priority" value="1.0" />
				<param name="scoringThisActivityAtAll" value="false" />
				<param name="typicalDuration" value="undefined" />
				<param name="typicalDurationScoreComputation" value="relative" />
			</parameterset>
			<parameterset type="activityParams" >
				<param name="activityType" value="dummy" />
				<param name="closingTime" value="undefined" />
				<param name="earliestEndTime" value="undefined" />
				<param name="latestStartTime" value="undefined" />
				<param name="minimalDuration" value="undefined" />
				<param name="openingTime" value="undefined" />
				<param name="priority" value="1.0" />
				<param name="scoringThisActivityAtAll" value="true" />
				<param name="typicalDuration" value="24:00:00" />
				<param name="typicalDurationScoreComputation" value="relative" />
			</parameterset>
			<parameterset type="activityParams" >
				<param name="activityType" value="h" />
				<param name="closingTime" value="undefined" />
				<param name="earliestEndTime" value="undefined" />
				<param name="latestStartTime" value="undefined" />
				<param name="minimalDuration" value="08:00:00" />
				<param name="openingTime" value="undefined" />
				<param name="priority" value="1.0" />
				<param name="scoringThisActivityAtAll" value="true" />
				<param name="typicalDuration" value="12:00:00" />
				<param name="typicalDurationScoreComputation" value="relative" />
			</parameterset>
			<parameterset type="activityParams" >
				<param name="activityType" value="w" />
				<param name="closingTime" value="18:00:00" />
				<param name="earliestEndTime" value="undefined" />
				<param name="latestStartTime" value="09:00:00" />
				<param name="minimalDuration" value="06:00:00" />
				<param name="openingTime" value="07:00:00" />
				<param name="priority" value="1.0" />
				<param name="scoringThisActivityAtAll" value="true" />
				<param name="typicalDuration" value="08:00:00" />
				<param name="typicalDurationScoreComputation" value="relative" />
			</parameterset>
			<parameterset type="modeParams" >
				<!-- [utils] alternative-specific constant.  Normally per trip, but that is probably buggy for multi-leg trips. -->
				<param name="constant" value="0.0" />
				<!-- [money] daily monetary constant. default=0 to be backwards compatible -->
				<param name="dailyMonetaryConstant" value="0.0" />
				<!-- [utils] daily utility constant. default=0 to be backwards compatible -->
				<param name="dailyUtilityConstant" value="0.0" />
				<!-- [utils/m] utility of traveling (e.g. walking or driving) per m, normally negative.  this is on top of the time (dis)utility. -->
				<param name="marginalUtilityOfDistance_util_m" value="0.0" />
				<!-- [utils/hr] additional marginal utility of traveling.  normally negative.  this comes on top of the opportunity cost of time -->
				<param name="marginalUtilityOfTraveling_util_hr" value="-6.0" />
				<param name="mode" value="car" />
				<!-- [unit_of_money/m] conversion of distance into money. Normally negative. -->
				<param name="monetaryDistanceRate" value="0.0" />
			</parameterset>
			<parameterset type="modeParams" >
				<param name="constant" value="0.0" />
				<param name="dailyMonetaryConstant" value="0.0" />
				<param name="dailyUtilityConstant" value="0.0" />
				<param name="marginalUtilityOfDistance_util_m" value="0.0" />
				<param name="marginalUtilityOfTraveling_util_hr" value="-6.0" />
				<param name="mode" value="pt" />
				<param name="monetaryDistanceRate" value="0.0" />
			</parameterset>
			<parameterset type="modeParams" >
				<param name="constant" value="0.0" />
				<param name="dailyMonetaryConstant" value="0.0" />
				<param name="dailyUtilityConstant" value="0.0" />
				<param name="marginalUtilityOfDistance_util_m" value="0.0" />
				<param name="marginalUtilityOfTraveling_util_hr" value="-6.0" />
				<param name="mode" value="walk" />
				<param name="monetaryDistanceRate" value="0.0" />
			</parameterset>
			<parameterset type="modeParams" >
				<param name="constant" value="0.0" />
				<param name="dailyMonetaryConstant" value="0.0" />
				<param name="dailyUtilityConstant" value="0.0" />
				<param name="marginalUtilityOfDistance_util_m" value="0.0" />
				<param name="marginalUtilityOfTraveling_util_hr" value="-6.0" />
				<param name="mode" value="bike" />
				<param name="monetaryDistanceRate" value="0.0" />
			</parameterset>
			<parameterset type="modeParams" >
				<param name="constant" value="0.0" />
				<param name="dailyMonetaryConstant" value="0.0" />
				<param name="dailyUtilityConstant" value="0.0" />
				<param name="marginalUtilityOfDistance_util_m" value="0.0" />
				<param name="marginalUtilityOfTraveling_util_hr" value="-6.0" />
				<param name="mode" value="ride" />
				<param name="monetaryDistanceRate" value="0.0" />
			</parameterset>
			<parameterset type="modeParams" >
				<param name="constant" value="0.0" />
				<param name="dailyMonetaryConstant" value="0.0" />
				<param name="dailyUtilityConstant" value="0.0" />
				<param name="marginalUtilityOfDistance_util_m" value="0.0" />
				<param name="marginalUtilityOfTraveling_util_hr" value="-6.0" />
				<param name="mode" value="other" />
				<param name="monetaryDistanceRate" value="0.0" />
			</parameterset>
			<parameterset type="modeParams" >
				<param name="constant" value="0.0" />
				<param name="dailyMonetaryConstant" value="0.0" />
				<param name="dailyUtilityConstant" value="0.0" />
				<param name="marginalUtilityOfDistance_util_m" value="0.0" />
				<param name="marginalUtilityOfTraveling_util_hr" value="-6.0" />
				<param name="mode" value="taxi" />
				<param name="monetaryDistanceRate" value="0.0" />
			</parameterset>
		</parameterset>
	</module>
	<module name="plans" >
		<!-- String: minOfDurationAndEndTime tryEndTimeThenDuration endTimeOnly. Anything besides minOfDurationAndEndTime will internally use a different (simpler) version of the TimeAllocationMutator. -->
		<param name="activityDurationInterpretation" value="tryEndTimeThenDuration" />
		<!-- Possible values: reject, useMainModeIdentifier -->
		<param name="handlingOfPlansWithoutRoutingMode" value="reject" />
		<!-- The Coordinates Reference System in which the coordinates are expressed in the input file. At import, the coordinates will be converted to the coordinate system defined in "global", and willbe converted back at export. If not specified, no conversion happens. -->
		<param name="inputCRS" value="null" />
		<param name="inputPersonAttributesFile" value="null" />
		<param name="inputPlansFile" value="plans_mixed_traffic.xml.gz" />
		<param name="insistingOnUsingDeprecatedPersonAttributeFile" value="false" />
		<!-- Defines how routes are stored in memory. Currently supported: LinkNetworkRoute, CompressedNetworkRoute. -->
		<param name="networkRouteType" value="LinkNetworkRoute" />
		<!-- (not tested) will remove plan attributes that are presumably not used, such as activityStartTime. default=false. Use with Caution! -->
		<param name="removingUnnecessaryPlanAttributes" value="false" />
	</module>
	<module name="planscalcroute" >
		<!-- Some typical teleportation routing params are set by default, such as for walk and bike.  Setting this switch to "true" will clear them.  Note that this will also clear settings for helper modes such as for non_network_walk -->
		<param name="clearDefaultTeleportedModeParams" value="false" />
		<!-- All the modes for which the router is supposed to generate network routes (like car) -->
		<param name="networkModes" value="car,taxi" />
		<!-- strength of the randomness for the utility of money in routing under toll.  Leads to Pareto-optimal route with randomly drawn money-vs-other-attributes tradeoff. Technically the width parameter of a log-normal distribution. 3.0 seems to be a good value.  -->
		<param name="routingRandomness" value="3.0" />
		<parameterset type="teleportedModeParameters" >
			<param name="beelineDistanceFactor" value="1.3" />
			<param name="mode" value="bike" />
			<!-- Free-speed factor for a teleported mode. Travel time = teleportedModeFreespeedFactor * <freespeed car travel time>. Insert a line like this for every such mode. Please do not set teleportedModeFreespeedFactor as well as teleportedModeSpeed for the same mode, but if you do, +teleportedModeFreespeedFactor wins over teleportedModeSpeed. -->
			<param name="teleportedModeFreespeedFactor" value="null" />
			<!-- Speed for a teleported mode. Travel time = (<beeline distance> * beelineDistanceFactor) / teleportedModeSpeed. Insert a line like this for every such mode. -->
			<param name="teleportedModeSpeed" value="4.166666666666667" />
		</parameterset>
		<parameterset type="teleportedModeParameters" >
			<param name="beelineDistanceFactor" value="1.3" />
			<param name="mode" value="walk" />
			<param name="teleportedModeFreespeedFactor" value="null" />
			<param name="teleportedModeSpeed" value="0.8333333333333333" />
		</parameterset>
		<parameterset type="teleportedModeParameters" >
			<param name="beelineDistanceFactor" value="1.3" />
			<param name="mode" value="non_network_walk" />
			<param name="teleportedModeFreespeedFactor" value="null" />
			<param name="teleportedModeSpeed" value="0.8333333333333333" />
		</parameterset>
		<parameterset type="teleportedModeParameters" >
			<param name="beelineDistanceFactor" value="1.3" />
			<param name="mode" value="ride" />
			<param name="teleportedModeFreespeedFactor" value="1.0" />
			<param name="teleportedModeSpeed" value="null" />
		</parameterset>
		<parameterset type="teleportedModeParameters" >
			<param name="beelineDistanceFactor" value="1.3" />
			<param name="mode" value="pt" />
			<param name="teleportedModeFreespeedFactor" value="2.0" />
			<param name="teleportedModeSpeed" value="null" />
		</parameterset>
	</module>
	<module name="ptCounts" >
		<!-- factor by which to re-scale the simulated values.  necessary when simulation runs with something different from 100%.  needs to be adapted manually -->
		<param name="countsScaleFactor" value="1.0" />
		<!-- distance to distanceFilterCenterNode to include counting stations. The unit of distance is the Euclidean distance implied by the coordinate system -->
		<param name="distanceFilter" value="null" />
		<!-- node id for center node of distance filter -->
		<param name="distanceFilterCenterNode" value="null" />
		<!-- input file containing the alighting (getting off) counts for pt -->
		<param name="inputAlightCountsFile" value="null" />
		<!-- input file containing the boarding (getting on) counts for pt -->
		<param name="inputBoardCountsFile" value="null" />
		<!-- input file containing the occupancy counts for pt -->
		<param name="inputOccupancyCountsFile" value="null" />
		<!-- possible values: `html', `kml', `txt', `all' -->
		<param name="outputformat" value="null" />
		<!-- every how many iterations (starting with 0) counts comparisons are generated -->
		<param name="ptCountsInterval" value="10" />
	</module>
	<module name="qsim" >
		<param name="endTime" value="00:00:00" />
		<param name="flowCapacityFactor" value="1.0" />
		<!-- decides if waiting vehicles enter the network after or before the already driving vehicles were moved. Default: false -->
		<param name="insertingWaitingVehiclesBeforeDrivingVehicles" value="true" />
		<!-- If link dynamics is set as SeepageQ, set to false if all seep modes should perform seepage. Default is true (better option). -->
		<param name="isRestrictingSeepage" value="true" />
		<!-- If link dynamics is set as SeepageQ, set to true if seep mode do not consumes any space on the link. Default is false. -->
		<param name="isSeepModeStorageFree" value="false" />
		<!-- default: FIFO; options: FIFO PassingQ SeepageQ -->
		<param name="linkDynamics" value="FIFO" />
		<!-- The (initial) width of the links of the network. Use positive floating point values. This is used only for visualisation. -->
		<param name="linkWidth" value="30.0" />
		<!-- [comma-separated list] Defines which modes are congested modes. Technically, these are the modes that the departure handler of the netsimengine handles.  Effective cell size, effective lane width, flow capacity factor, and storage capacity factor need to be set with diligence.  Need to be vehicular modes to make sense. -->
		<param name="mainMode" value="car" />
		<!-- Shortens a link in the visualization, i.e. its start and end point are moved into towards the center. Does not affect traffic flow.  -->
		<param name="nodeOffset" value="0.0" />
		<!-- Number of threads used for the QSim.  Note that this setting is independent from the "global" threads setting.  In contrast to earlier versions, the non-parallel special version is no longer there. -->
		<param name="numberOfThreads" value="1" />
		<!-- Boolean. `true': stuck vehicles are removed, aborting the plan; `false': stuck vehicles are forced into the next link. `false' is probably the better choice. -->
		<param name="removeStuckVehicles" value="false" />
		<!-- If link dynamics is set as SeepageQ, set a seep mode. Default is bike. -->
		<param name="seepMode" value="bike" />
		<!-- Possible values: minOfEndtimeAndMobsimFinished, onlyUseEndtime -->
		<param name="simEndtimeInterpretation" value="null" />
		<!-- Options: maxOfStarttimeAndEarliestActivityEnd onlyUseStarttime  -->
		<param name="simStarttimeInterpretation" value="onlyUseStarttime" />
		<!-- snapshotStyle. One of: equiDist queue withHoles withHolesAndShowHoles kinematicWaves  -->
		<param name="snapshotStyle" value="queue" />
		<param name="snapshotperiod" value="00:00:00" />
		<param name="startTime" value="00:00:00" />
		<param name="storageCapacityFactor" value="1.0" />
		<!-- time in seconds.  Time after which the frontmost vehicle on a link is called `stuck' if it does not move. -->
		<param name="stuckTime" value="10.0" />
		<param name="timeStepSize" value="00:00:01" />
		<!-- options: queue withHoles kinematicWaves  -->
		<param name="trafficDynamics" value="queue" />
		<!-- Set this parameter to true if lanes should be used, false if not. -->
		<param name="useLanes" value="false" />
		<!-- If a route does not reference a vehicle, agents will use the vehicle with the same id as their own. -->
		<param name="usePersonIdForMissingVehicleId" value="true" />
		<!-- If false, the qsim accumulates fractional flows up to one flow unit in every time step.  If true, flows are updated only if an agent wants to enter the link or an agent is added to buffer. Default is true. -->
		<param name="usingFastCapacityUpdate" value="true" />
		<!-- if the qsim should use as many runners as there are threads (Christoph's dissertation version) or more of them, together with a thread pool (seems to be faster in some situations, but is not tested). -->
		<param name="usingThreadpool" value="true" />
		<!-- Defines what happens if an agent wants to depart, but the specified vehicle is not available. One of: teleport wait exception  -->
		<param name="vehicleBehavior" value="teleport" />
		<!-- If vehicles should all be the same default vehicle, or come from the vehicles file, or something else.  Possible values:  defaultVehicle modeVehicleTypesFromVehiclesData fromVehiclesData -->
		<param name="vehiclesSource" value="defaultVehicle" />
	</module>
	<module name="strategy" >
		<!-- the external executable will be called with a config file as argument.  This is the pathname to a possible skeleton config, to which additional information will be added.  Can be null. -->
		<param name="ExternalExeConfigTemplate" value="null" />
		<!-- time out value (in seconds) after which matsim will consider the external strategy as failed -->
		<param name="ExternalExeTimeOut" value="3600" />
		<!-- root directory for temporary files generated by the external executable. Provided as a service; I don't think this is used by MATSim. -->
		<param name="ExternalExeTmpFileRootDir" value="null" />
		<!-- fraction of iterations where innovative strategies are switched off.  Something like 0.8 should be good.  E.g. if you run from iteration 400 to iteration 500, innovation is switched off at iteration 480 -->
		<param name="fractionOfIterationsToDisableInnovation" value="Infinity" />
		<!-- maximum number of plans per agent.  ``0'' means ``infinity''.  Currently (2010), ``5'' is a good number -->
		<param name="maxAgentPlanMemorySize" value="5" />
		<!-- strategyName of PlanSelector for plans removal.  Possible defaults: WorstPlanSelector SelectRandom SelectExpBetaForRemoval ChangeExpBetaForRemoval PathSizeLogitSelectorForRemoval . The current default, WorstPlanSelector is not a good choice from a discrete choice theoretical perspective. Alternatives, however, have not been systematically tested. kai, feb'12 -->
		<param name="planSelectorForRemoval" value="WorstPlanSelector" />
		<parameterset type="strategysettings" >
			<!-- iteration after which strategy will be disabled.  most useful for ``innovative'' strategies (new routes, new times, ...). Normally, better use fractionOfIterationsToDisableInnovation -->
			<param name="disableAfterIteration" value="-1" />
			<!-- path to external executable (if applicable) -->
			<param name="executionPath" value="null" />
			<!-- strategyName of strategy.  Possible default names: SelectRandom BestScore KeepLastSelected ChangeExpBeta SelectExpBeta SelectPathSizeLogit      (selectors), ReRouteTimeAllocationMutatorTimeAllocationMutator_ReRouteChangeSingleTripModeChangeTripModeSubtourModeChoice (innovative strategies). -->
			<param name="strategyName" value="BestScore" />
			<!-- subpopulation to which the strategy applies. "null" refers to the default population, that is, the set of persons for which no explicit subpopulation is defined (ie no subpopulation attribute) -->
			<param name="subpopulation" value="null" />
			<!-- weight of a strategy: for each agent, a strategy will be selected with a probability proportional to its weight -->
			<param name="weight" value="0.9" />
		</parameterset>
		<parameterset type="strategysettings" >
			<param name="disableAfterIteration" value="-1" />
			<param name="executionPath" value="null" />
			<param name="strategyName" value="ReRoute" />
			<param name="subpopulation" value="null" />
			<param name="weight" value="0.1" />
		</parameterset>
	</module>
	<module name="subtourModeChoice" >
		<!-- Only for backwards compatibility.  Defines if only trips from modes list should change mode, or all trips.  Options: fromAllModesToSpecifiedModes fromSpecifiedModesToSpecifiedModes  -->
		<param name="behavior" value="fromSpecifiedModesToSpecifiedModes" />
		<!-- Defines the chain-based modes, seperated by commas -->
		<param name="chainBasedModes" value="car,bike" />
		<!-- Defines whether car availability must be considered or not. A agent has no car only if it has no license, or never access to a car -->
		<param name="considerCarAvailability" value="false" />
		<!-- Defines all the modes available, including chain-based modes, seperated by commas -->
		<param name="modes" value="car,pt,bike,walk" />
	</module>
	<module name="transit" >
		<!-- The Coordinates Reference System in which the coordinates are expressed in the input file. At import, the coordinates will be converted to the coordinate system defined in "global", and willbe converted back at export. If not specified, no conversion happens. -->
		<param name="inputScheduleCRS" value="null" />
		<param name="insistingOnUsingDeprecatedAttributeFiles" value="false" />
		<!-- Optional input file containing additional attributes for transit lines, stored as ObjectAttributes. -->
		<param name="transitLinesAttributesFile" value="null" />
		<!-- Comma-separated list of transportation modes that are handled as transit. Defaults to 'pt'. -->
		<param name="transitModes" value="pt" />
		<!-- Input file containing the transit schedule to be simulated. -->
		<param name="transitScheduleFile" value="null" />
		<!-- Optional input file containing additional attributes for transit stop facilities, stored as ObjectAttributes. -->
		<param name="transitStopsAttributesFile" value="null" />
		<!-- Set this parameter to true if transit should be simulated, false if not. -->
		<param name="useTransit" value="false" />
		<param name="usingTransitInMobsim" value="true" />
		<!-- Input file containing the vehicles used by the departures in the transit schedule. -->
		<param name="vehiclesFile" value="null" />
	</module>
	<module name="transitRouter" >
		<!-- additional time the router allocates when a line switch happens. Can be interpreted as a 'safety' time that agents need to safely transfer from one line to another -->
		<param name="additionalTransferTime" value="0.0" />
		<!-- Factor with which direct walk generalized cost is multiplied before it is compared to the pt generalized cost.  Set to a very high value to reduce direct walk results. -->
		<param name="directWalkFactor" value="1.0" />
		<!-- step size to increase searchRadius if no stops are found -->
		<param name="extensionRadius" value="200.0" />
		<!-- maximum beeline distance between stops that agents could transfer to by walking -->
		<param name="maxBeelineWalkConnectionDistance" value="100.0" />
		<!-- the radius in which stop locations are searched, given a start or target coordinate -->
		<param name="searchRadius" value="1000.0" />
	</module>
	<module name="travelTimeCalculator" >
		<!-- (only for backwards compatibility; only used if separateModes==false && + filterModes==true)  Transport modes that will be respected by the travel time collector. 'car' is default which includes also buses from the pt simulation module. -->
		<param name="analyzedModes" value="car,taxi" />
		<param name="calculateLinkToLinkTravelTimes" value="false" />
		<param name="calculateLinkTravelTimes" value="true" />
		<!-- (only for backwards compatiblity; only used if separateModes==false)  Only modes included in analyzedModes are included. -->
		<param name="filterModes" value="false" />
		<!-- The lenght (in sec) of the time period that is splited into time bins; an additional time bin is created to aggregate all travel times collected after maxTime -->
		<param name="maxTime" value="108000" />
		<!-- (only for backwards compatibility) If false, link travel times are measured and aggregated over all vehicles using the link. -->
		<param name="separateModes" value="true" />
		<!-- How to deal with congested time bins that have no link entry events. `optimistic' assumes free speed (too optimistic); 'experimental_LastMile' is experimental and probably too pessimistic. -->
		<param name="travelTimeAggregator" value="optimistic" />
		<!-- The size of the time bin (in sec) into which the link travel times are aggregated for the router -->
		<param name="travelTimeBinSize" value="900" />
		<!-- possible values: TravelTimeCalculatorArray TravelTimeCalculatorHashMap  -->
		<param name="travelTimeCalculator" value="TravelTimeCalculatorArray" />
		<!-- How to deal with link entry times at different positions during the time bin. Currently supported: average, linearinterpolation -->
		<param name="travelTimeGetter" value="average" />
	</module>
	<module name="vehicles" >
		<param name="vehiclesFile" value="car_vehicles.xml" />
	</module>
	<module name="vspExperimental" >
		<!-- (do not use except of you have to) There was a problem with pt interaction scoring.  Some people solved it by overwriting the parameters of the pt interaction activity type.  Doing this now throws an Exception.  If you still insist on doing this, set the following to true. -->
		<param name="isAbleToOverwritePtInteractionParams" value="false" />
		<param name="isGeneratingBoardingDeniedEvent" value="false" />
		<!-- if an approximation of the opportunity cost of time is included into the radius calculation for location choice.`true' will be faster, but it is an approximation.  Default is `true'; `false' is available for backwards compatibility. -->
		<param name="isUsingOpportunityCostOfTimeForLocationChoice" value="true" />
		<param name="logitScaleParamForPlansRemoval" value="1.0" />
		<!-- Options: | ignore | info | warn | abort | .  When violating VSP defaults, this results in nothing, logfile infos, logfile warnings, or aborts.  Members of VSP should use `abort' or talk to kai. -->
		<param name="vspDefaultsCheckingLevel" value="ignore" />
		<!-- if true then writes output_events in output directory.  default is `false'. Will only work when lastIteration is multiple of events writing interval -->
		<param name="writingOutputEvents" value="true" />
	</module>

</config>

2020-10-04T23:27:07,656  INFO ControlerUtils:84 Complete config dump done.
2020-10-04T23:27:07,656  INFO ControlerUtils:85 Checking consistency of config...
2020-10-04T23:27:07,657  INFO VspConfigConsistencyCheckerImpl:58 NOT running vsp config consistency check because vsp defaults checking level is set to IGNORE
2020-10-04T23:27:07,664  INFO ControlerUtils:87 Checking consistency of config done.
2020-10-04T23:27:07,664  INFO PrepareForSimImpl:115 Network seems to be multimodal. Create car-only network which is handed over to PersonPrepareForSim.
2020-10-04T23:27:07,664  INFO NetworkImpl:163  node # 1
2020-10-04T23:27:07,664  INFO NetworkImpl:163  node # 4
2020-10-04T23:27:07,665  INFO NetworkImpl:159  link # 1
2020-10-04T23:27:07,665  INFO NetworkImpl:159  link # 4
2020-10-04T23:27:07,669  WARN PrepareForSimImpl:222 'usePersonIdForMissingVehicleId' is deprecated. It will be removed soon.
2020-10-04T23:27:07,670  INFO Counter:69 [VehiclesImpl] added vehicle # 8
2020-10-04T23:27:07,671  INFO Counter:69 [VehiclesImpl] added vehicle # 16
2020-10-04T23:27:07,671  INFO Counter:69 [VehiclesImpl] added vehicle # 32
2020-10-04T23:27:07,692  INFO PreProcessDijkstra:118 nodes in dead ends: 2 (total nodes: 6). Done in 2 ms
2020-10-04T23:27:07,692  WARN PreProcessEuclidean:59 There are links with stored length smaller than their Euclidean distance in this network. Thus, A* cannot guarantee to calculate the least-cost paths between two nodes.
2020-10-04T23:27:07,692  INFO PreProcessLandmarks:112 Putting landmarks on network...
2020-10-04T23:27:07,694  INFO LandmarkerPieSlices:96 Filling sectors...
2020-10-04T23:27:07,694  INFO LandmarkerPieSlices:163 There is no node in sector 0!
2020-10-04T23:27:07,695  INFO LandmarkerPieSlices:163 There is no node in sector 1!
2020-10-04T23:27:07,695  INFO LandmarkerPieSlices:163 There is no node in sector 2!
2020-10-04T23:27:07,695  INFO LandmarkerPieSlices:163 There is no node in sector 3!
2020-10-04T23:27:07,695  INFO LandmarkerPieSlices:163 There is no node in sector 4!
2020-10-04T23:27:07,695  INFO LandmarkerPieSlices:163 There is no node in sector 5!
2020-10-04T23:27:07,695  INFO LandmarkerPieSlices:163 There is no node in sector 6!
2020-10-04T23:27:07,695  INFO LandmarkerPieSlices:163 There is no node in sector 7!
2020-10-04T23:27:07,695  INFO LandmarkerPieSlices:163 There is no node in sector 8!
2020-10-04T23:27:07,695  INFO LandmarkerPieSlices:163 There is no node in sector 9!
2020-10-04T23:27:07,696  INFO LandmarkerPieSlices:163 There is no node in sector 10!
2020-10-04T23:27:07,696  INFO LandmarkerPieSlices:163 There is no node in sector 11!
2020-10-04T23:27:07,696  INFO LandmarkerPieSlices:163 There is no node in sector 12!
2020-10-04T23:27:07,696  INFO LandmarkerPieSlices:163 There is no node in sector 13!
2020-10-04T23:27:07,696  INFO LandmarkerPieSlices:163 There is no node in sector 14!
2020-10-04T23:27:07,698  INFO LandmarkerPieSlices:100 Reducing number of landmarks from 16 to 1...
2020-10-04T23:27:07,698  INFO LandmarkerPieSlices:107 Refining landmarks...
2020-10-04T23:27:07,698  INFO LandmarkerPieSlices:109 done
2020-10-04T23:27:07,699  INFO PreProcessLandmarks:115 done in 7 ms
2020-10-04T23:27:07,699  INFO PreProcessLandmarks:117 Initializing landmarks data
2020-10-04T23:27:07,700  INFO PreProcessLandmarks:129 Calculating distance from each node to each of the 16 landmarks using 2 threads...
2020-10-04T23:27:07,701  INFO PreProcessLandmarks:139 wait for landmarks Calculator to finish...
2020-10-04T23:27:07,710  INFO PreProcessLandmarks:161 done in 10 ms
2020-10-04T23:27:07,716  INFO NetworkImpl:163  node # 1
2020-10-04T23:27:07,717  INFO NetworkImpl:163  node # 4
2020-10-04T23:27:07,717  INFO NetworkImpl:159  link # 1
2020-10-04T23:27:07,717  INFO NetworkImpl:159  link # 4
2020-10-04T23:27:07,717  WARN RandomizingTimeDistanceTravelDisutilityFactory:112 There will be no routing randomness. The randomization of the travel disutility requires the monetary distance rate to be different than zero. Continuing anyway.
2020-10-04T23:27:07,718  WARN RandomizingTimeDistanceTravelDisutilityFactory:117 There will be no routing randomness. The randomization of the travel disutility requires the travel time cost rate to be different than zero. Continuing anyway.
2020-10-04T23:27:07,720  INFO RandomizingTimeDistanceTravelDisutilityFactory:85  sigma: 3.0; resulting normalization: 0.011108996538242306
2020-10-04T23:27:07,722  INFO PreProcessDijkstra:118 nodes in dead ends: 2 (total nodes: 6). Done in 0 ms
2020-10-04T23:27:07,722  WARN PreProcessEuclidean:59 There are links with stored length smaller than their Euclidean distance in this network. Thus, A* cannot guarantee to calculate the least-cost paths between two nodes.
2020-10-04T23:27:07,722  INFO PreProcessLandmarks:112 Putting landmarks on network...
2020-10-04T23:27:07,723  INFO LandmarkerPieSlices:96 Filling sectors...
2020-10-04T23:27:07,723  INFO LandmarkerPieSlices:163 There is no node in sector 0!
2020-10-04T23:27:07,723  INFO LandmarkerPieSlices:163 There is no node in sector 1!
2020-10-04T23:27:07,723  INFO LandmarkerPieSlices:163 There is no node in sector 2!
2020-10-04T23:27:07,723  INFO LandmarkerPieSlices:163 There is no node in sector 3!
2020-10-04T23:27:07,723  INFO LandmarkerPieSlices:163 There is no node in sector 4!
2020-10-04T23:27:07,724  INFO LandmarkerPieSlices:163 There is no node in sector 5!
2020-10-04T23:27:07,724  INFO LandmarkerPieSlices:163 There is no node in sector 6!
2020-10-04T23:27:07,724  INFO LandmarkerPieSlices:163 There is no node in sector 7!
2020-10-04T23:27:07,724  INFO LandmarkerPieSlices:163 There is no node in sector 8!
2020-10-04T23:27:07,724  INFO LandmarkerPieSlices:163 There is no node in sector 9!
2020-10-04T23:27:07,724  INFO LandmarkerPieSlices:163 There is no node in sector 10!
2020-10-04T23:27:07,724  INFO LandmarkerPieSlices:163 There is no node in sector 11!
2020-10-04T23:27:07,724  INFO LandmarkerPieSlices:163 There is no node in sector 12!
2020-10-04T23:27:07,724  INFO LandmarkerPieSlices:163 There is no node in sector 13!
2020-10-04T23:27:07,725  INFO LandmarkerPieSlices:163 There is no node in sector 14!
2020-10-04T23:27:07,725  INFO LandmarkerPieSlices:100 Reducing number of landmarks from 16 to 1...
2020-10-04T23:27:07,725  INFO LandmarkerPieSlices:107 Refining landmarks...
2020-10-04T23:27:07,725  INFO LandmarkerPieSlices:109 done
2020-10-04T23:27:07,725  INFO PreProcessLandmarks:115 done in 3 ms
2020-10-04T23:27:07,725  INFO PreProcessLandmarks:117 Initializing landmarks data
2020-10-04T23:27:07,725  INFO PreProcessLandmarks:129 Calculating distance from each node to each of the 16 landmarks using 2 threads...
2020-10-04T23:27:07,726  INFO PreProcessLandmarks:139 wait for landmarks Calculator to finish...
2020-10-04T23:27:07,727  INFO PreProcessLandmarks:161 done in 1 ms
2020-10-04T23:27:07,730  INFO PreProcessDijkstra:118 nodes in dead ends: 2 (total nodes: 6). Done in 0 ms
2020-10-04T23:27:07,730  WARN PreProcessEuclidean:59 There are links with stored length smaller than their Euclidean distance in this network. Thus, A* cannot guarantee to calculate the least-cost paths between two nodes.
2020-10-04T23:27:07,735  INFO RandomizingTimeDistanceTravelDisutilityFactory:85  sigma: 3.0; resulting normalization: 0.011108996538242306
2020-10-04T23:27:07,737  INFO Counter:69 [PersonPrepareForSim] handled person # 1
2020-10-04T23:27:07,739  INFO Counter:69 [PersonPrepareForSim] handled person # 4
2020-10-04T23:27:07,739  INFO Counter:69 [PersonPrepareForSim] handled person # 8
2020-10-04T23:27:07,739  INFO Counter:69 [PersonPrepareForSim] handled person # 2
2020-10-04T23:27:07,739  INFO Counter:69 [PersonPrepareForSim] handled person # 16
2020-10-04T23:27:07,740  INFO Counter:74 [PersonPrepareForSim] handled person # 20
2020-10-04T23:27:07,741  INFO AbstractController:124 ###################################################
2020-10-04T23:27:07,741  INFO AbstractController:125 ### ITERATION 0 BEGINS
2020-10-04T23:27:07,742  INFO ControlerListenerManagerImpl:145 calling notifyIterationStarts on org.matsim.analysis.LegHistogramListener
2020-10-04T23:27:07,743  INFO ControlerListenerManagerImpl:145 calling notifyIterationStarts on org.matsim.analysis.LinkStatsControlerListener
2020-10-04T23:27:07,743  INFO ControlerListenerManagerImpl:145 calling notifyIterationStarts on org.matsim.core.replanning.ReplanningContextImpl
2020-10-04T23:27:07,743  INFO ControlerListenerManagerImpl:145 calling notifyIterationStarts on org.matsim.core.scoring.ScoringFunctionsForPopulation$1
2020-10-04T23:27:07,763  INFO ControlerListenerManagerImpl:145 calling notifyIterationStarts on org.matsim.core.scoring.ExperiencedPlansServiceImpl$1
2020-10-04T23:27:07,764  INFO ControlerListenerManagerImpl:148 [it.0] all ControlerIterationStartsListeners called.
2020-10-04T23:27:07,765  INFO ControlerListenerManagerImpl:224 calling notifyBeforeMobsim on org.matsim.core.controler.corelisteners.EventsHandlingImpl
2020-10-04T23:27:07,765  INFO EventsManagerImpl:184 resetting Event-Handlers
2020-10-04T23:27:07,765  INFO EventsManagerImpl:191   org.matsim.core.trafficmonitoring.TravelTimeCalculator
2020-10-04T23:27:07,765  INFO EventsManagerImpl:191   org.matsim.core.trafficmonitoring.TravelTimeCalculator
2020-10-04T23:27:07,765  INFO EventsManagerImpl:191   org.matsim.core.scoring.EventsToLegsAndActivities
2020-10-04T23:27:07,765  INFO EventsManagerImpl:191   org.matsim.analysis.VolumesAnalyzer
2020-10-04T23:27:07,765  INFO EventsManagerImpl:191   org.matsim.core.scoring.ScoringFunctionsForPopulation
2020-10-04T23:27:07,766  INFO EventsManagerImpl:191   org.matsim.analysis.LegHistogram
2020-10-04T23:27:07,766  INFO EventsManagerImpl:191   org.matsim.analysis.CalcLegTimes
2020-10-04T23:27:07,766  INFO EventsManagerImpl:191   org.matsim.contrib.dvrp.passenger.PassengerRequestEventToPassengerEngineForwarder
2020-10-04T23:27:07,781  INFO EventsManagerImpl:158 adding Event-Handler: org.matsim.core.events.algorithms.EventWriterXML
2020-10-04T23:27:07,784  INFO EventsManagerImpl:162   org.matsim.core.events.algorithms.EventWriter
2020-10-04T23:27:07,784  INFO EventsManagerImpl:162   org.matsim.core.events.handler.BasicEventHandler
2020-10-04T23:27:07,784  INFO EventsManagerImpl:221     > org.matsim.api.core.v01.events.Event
2020-10-04T23:27:07,784  INFO EventsManagerImpl:170 
2020-10-04T23:27:07,784  INFO EventsManagerImpl:158 adding Event-Handler: org.matsim.core.events.algorithms.EventWriterXML
2020-10-04T23:27:07,784  INFO EventsManagerImpl:162   org.matsim.core.events.algorithms.EventWriter
2020-10-04T23:27:07,785  INFO EventsManagerImpl:162   org.matsim.core.events.handler.BasicEventHandler
2020-10-04T23:27:07,787  INFO EventsManagerImpl:221     > org.matsim.api.core.v01.events.Event
2020-10-04T23:27:07,788  INFO EventsManagerImpl:170 
2020-10-04T23:27:07,789  INFO ControlerListenerManagerImpl:224 calling notifyBeforeMobsim on org.matsim.core.controler.corelisteners.PlansDumpingImpl
2020-10-04T23:27:07,789  INFO PlansDumpingImpl:76 dumping plans...
2020-10-04T23:27:08,049  WARN ObjectAttributesConverter:77 No AttributeConverter found for class java.util.Collections$UnmodifiableMap. Not all attribute values can be converted.
2020-10-04T23:27:08,050  INFO Counter:69 [PopulationWriter] dumped person # 1
2020-10-04T23:27:08,050  INFO Counter:69 [PopulationWriter] dumped person # 2
2020-10-04T23:27:08,050  INFO Counter:69 [PopulationWriter] dumped person # 4
2020-10-04T23:27:08,050  INFO Counter:69 [PopulationWriter] dumped person # 8
2020-10-04T23:27:08,051  INFO Counter:69 [PopulationWriter] dumped person # 16
2020-10-04T23:27:08,052  INFO PopulationWriter:144 Population written to: output/pigou_mixed_traffic/ITERS/it.0/0.plans.xml.gz
2020-10-04T23:27:08,052  INFO Counter:74 [PopulationWriter] dumped person # 20
2020-10-04T23:27:08,053  INFO PlansDumpingImpl:93 finished plans dump.
2020-10-04T23:27:08,053  INFO ControlerListenerManagerImpl:229 calling notifyBeforeMobsim on org.matsim.core.population.VspPlansCleaner
2020-10-04T23:27:08,053  INFO ControlerListenerManagerImpl:232 [it.0] all ControlerBeforeMobsimListeners called.
2020-10-04T23:27:08,054  INFO PrepareForMobsimImpl:83 Network seems to be multimodal. Create car-only network which is handed over to PersonPrepareForSim.
2020-10-04T23:27:08,054  INFO NetworkImpl:163  node # 1
2020-10-04T23:27:08,054  INFO NetworkImpl:163  node # 4
2020-10-04T23:27:08,054  INFO NetworkImpl:159  link # 1
2020-10-04T23:27:08,055  INFO NetworkImpl:159  link # 4
2020-10-04T23:27:08,055  INFO RandomizingTimeDistanceTravelDisutilityFactory:85  sigma: 3.0; resulting normalization: 0.011108996538242306
2020-10-04T23:27:08,056  INFO RandomizingTimeDistanceTravelDisutilityFactory:85  sigma: 3.0; resulting normalization: 0.011108996538242306
2020-10-04T23:27:08,056  INFO Counter:69 [PersonPrepareForSim] handled person # 1
2020-10-04T23:27:08,056  INFO Counter:69 [PersonPrepareForSim] handled person # 2
2020-10-04T23:27:08,057  INFO Counter:69 [PersonPrepareForSim] handled person # 4
2020-10-04T23:27:08,057  INFO Counter:69 [PersonPrepareForSim] handled person # 8
2020-10-04T23:27:08,057  INFO Counter:69 [PersonPrepareForSim] handled person # 16
2020-10-04T23:27:08,058  INFO Counter:74 [PersonPrepareForSim] handled person # 20
2020-10-04T23:27:08,203  INFO MobsimListenerManager:49 calling addQueueSimulationListener
2020-10-04T23:27:08,204  INFO MobsimListenerManager:53   assigned class org.matsim.core.mobsim.framework.listeners.MobsimListener to interface org.matsim.core.mobsim.framework.listeners.MobsimListener
2020-10-04T23:27:08,204  INFO MobsimListenerManager:53   assigned class org.matsim.core.mobsim.framework.listeners.MobsimListener to interface org.matsim.contrib.dvrp.trafficmonitoring.DvrpOfflineTravelTimeEstimator
2020-10-04T23:27:08,204  INFO MobsimListenerManager:53   assigned class org.matsim.core.mobsim.framework.listeners.MobsimListener to interface org.matsim.core.mobsim.framework.listeners.MobsimBeforeCleanupListener
2020-10-04T23:27:08,204  INFO MobsimListenerManager:49 calling addQueueSimulationListener
2020-10-04T23:27:08,205  INFO MobsimListenerManager:53   assigned class org.matsim.core.mobsim.framework.listeners.MobsimListener to interface org.matsim.core.mobsim.framework.listeners.MobsimListener
2020-10-04T23:27:08,205  INFO MobsimListenerManager:53   assigned class org.matsim.core.mobsim.framework.listeners.MobsimListener to interface org.matsim.core.mobsim.framework.listeners.MobsimAfterSimStepListener
2020-10-04T23:27:08,205  INFO MobsimListenerManager:53   assigned class org.matsim.core.mobsim.framework.listeners.MobsimListener to interface org.matsim.core.mobsim.framework.listeners.MobsimInitializedListener
2020-10-04T23:27:08,205  INFO MobsimListenerManager:53   assigned class org.matsim.core.mobsim.framework.listeners.MobsimListener to interface org.matsim.vis.snapshotwriters.SnapshotWriterManager
2020-10-04T23:27:08,205  INFO MobsimListenerManager:53   assigned class org.matsim.core.mobsim.framework.listeners.MobsimListener to interface org.matsim.core.mobsim.framework.listeners.MobsimBeforeCleanupListener
2020-10-04T23:27:08,206  INFO RandomizingTimeDistanceTravelDisutilityFactory:85  sigma: 3.0; resulting normalization: 0.011108996538242306
2020-10-04T23:27:08,252  INFO PreProcessDijkstra:118 nodes in dead ends: 2 (total nodes: 6). Done in 0 ms
2020-10-04T23:27:08,252  WARN PreProcessEuclidean:59 There are links with stored length smaller than their Euclidean distance in this network. Thus, A* cannot guarantee to calculate the least-cost paths between two nodes.
2020-10-04T23:27:08,313  INFO QSimProvider:102 Added MobsimEngine class org.matsim.core.mobsim.qsim.ActivityEngineDefaultImpl
2020-10-04T23:27:08,314  INFO QSimProvider:108 Added Activityhandler class org.matsim.core.mobsim.qsim.ActivityEngineDefaultImpl
2020-10-04T23:27:08,314  INFO QSimProvider:114 Added DepartureHandler class org.matsim.core.mobsim.qsim.qnetsimengine.VehicularDepartureHandler
2020-10-04T23:27:08,315  INFO QSimProvider:102 Added MobsimEngine class org.matsim.core.mobsim.qsim.qnetsimengine.QNetsimEngineWithThreadpool
2020-10-04T23:27:08,315  INFO QSimProvider:102 Added MobsimEngine class org.matsim.core.mobsim.qsim.DefaultTeleportationEngine
2020-10-04T23:27:08,315  INFO QSimProvider:114 Added DepartureHandler class org.matsim.core.mobsim.qsim.DefaultTeleportationEngine
2020-10-04T23:27:08,316  INFO QSimProvider:120 Added AgentSource class org.matsim.core.mobsim.qsim.agents.PopulationAgentSource
2020-10-04T23:27:08,316  INFO MobsimListenerManager:49 calling addQueueSimulationListener
2020-10-04T23:27:08,317  INFO MobsimListenerManager:53   assigned class org.matsim.core.mobsim.framework.listeners.MobsimListener to interface org.matsim.core.mobsim.framework.listeners.MobsimListener
2020-10-04T23:27:08,317  INFO MobsimListenerManager:53   assigned class org.matsim.core.mobsim.framework.listeners.MobsimListener to interface org.matsim.core.mobsim.framework.listeners.MobsimBeforeSimStepListener
2020-10-04T23:27:08,317  INFO MobsimListenerManager:53   assigned class org.matsim.core.mobsim.framework.listeners.MobsimListener to interface org.matsim.core.mobsim.qsim.messagequeueengine.MessageQueueEngine
2020-10-04T23:27:08,317  INFO QSimProvider:126 Added MobsimListener class org.matsim.core.mobsim.qsim.messagequeueengine.MessageQueueEngine
2020-10-04T23:27:08,318  INFO QSimProvider:102 Added MobsimEngine class org.matsim.contrib.dynagent.run.DynActivityEngine
2020-10-04T23:27:08,318  INFO QSimProvider:108 Added Activityhandler class org.matsim.contrib.dynagent.run.DynActivityEngine
2020-10-04T23:27:08,320  WARN EditTrips:111 no TransitStopAgentTracker found in qsim. Replanning of pt/transit legs will not work properly and will likely fail.
2020-10-04T23:27:08,320  INFO QSimProvider:102 Added MobsimEngine class org.matsim.core.mobsim.qsim.PreplanningEngine
2020-10-04T23:27:08,321  INFO MobsimListenerManager:49 calling addQueueSimulationListener
2020-10-04T23:27:08,321  INFO MobsimListenerManager:53   assigned class org.matsim.core.mobsim.framework.listeners.MobsimListener to interface org.matsim.contrib.taxi.util.stats.TaxiStatsDumper
2020-10-04T23:27:08,321  INFO MobsimListenerManager:53   assigned class org.matsim.core.mobsim.framework.listeners.MobsimListener to interface org.matsim.core.mobsim.framework.listeners.MobsimListener
2020-10-04T23:27:08,321  INFO MobsimListenerManager:53   assigned class org.matsim.core.mobsim.framework.listeners.MobsimListener to interface org.matsim.core.mobsim.framework.listeners.MobsimBeforeCleanupListener
2020-10-04T23:27:08,321  INFO QSimProvider:126 Added MobsimListener class org.matsim.contrib.taxi.util.stats.TaxiStatsDumper
2020-10-04T23:27:08,322  INFO MobsimListenerManager:49 calling addQueueSimulationListener
2020-10-04T23:27:08,322  INFO MobsimListenerManager:53   assigned class org.matsim.core.mobsim.framework.listeners.MobsimListener to interface org.matsim.core.mobsim.framework.listeners.MobsimListener
2020-10-04T23:27:08,323  INFO MobsimListenerManager:53   assigned class org.matsim.core.mobsim.framework.listeners.MobsimListener to interface org.matsim.core.mobsim.framework.listeners.MobsimInitializedListener
2020-10-04T23:27:08,323  INFO MobsimListenerManager:53   assigned class org.matsim.core.mobsim.framework.listeners.MobsimListener to interface org.matsim.contrib.dvrp.run.QSimScopeObjectListenerModule$$Lambda$249/0x0000000800f28040
2020-10-04T23:27:08,323  INFO QSimProvider:126 Added MobsimListener class org.matsim.contrib.dvrp.run.QSimScopeObjectListenerModule$$Lambda$249/0x0000000800f28040
2020-10-04T23:27:08,323  INFO QSimProvider:120 Added AgentSource class org.matsim.contrib.dvrp.vrpagent.VrpAgentSource
2020-10-04T23:27:08,323  INFO QSimProvider:102 Added MobsimEngine class org.matsim.contrib.dvrp.passenger.PassengerEngine
2020-10-04T23:27:08,323  INFO QSimProvider:114 Added DepartureHandler class org.matsim.contrib.dvrp.passenger.PassengerEngine
2020-10-04T23:27:08,323  INFO MobsimListenerManager:49 calling addQueueSimulationListener
2020-10-04T23:27:08,323  INFO MobsimListenerManager:53   assigned class org.matsim.core.mobsim.framework.listeners.MobsimListener to interface org.matsim.contrib.taxi.optimizer.TaxiOptimizer
2020-10-04T23:27:08,323  INFO MobsimListenerManager:53   assigned class org.matsim.core.mobsim.framework.listeners.MobsimListener to interface org.matsim.core.mobsim.framework.listeners.MobsimListener
2020-10-04T23:27:08,323  INFO MobsimListenerManager:53   assigned class org.matsim.core.mobsim.framework.listeners.MobsimListener to interface org.matsim.contrib.taxi.optimizer.rules.RuleBasedTaxiOptimizer
2020-10-04T23:27:08,323  INFO MobsimListenerManager:53   assigned class org.matsim.core.mobsim.framework.listeners.MobsimListener to interface org.matsim.core.mobsim.framework.listeners.MobsimBeforeSimStepListener
2020-10-04T23:27:08,324  INFO MobsimListenerManager:53   assigned class org.matsim.core.mobsim.framework.listeners.MobsimListener to interface org.matsim.contrib.taxi.optimizer.DefaultTaxiOptimizer
2020-10-04T23:27:08,324  INFO QSimProvider:126 Added MobsimListener class org.matsim.contrib.taxi.optimizer.rules.RuleBasedTaxiOptimizer
2020-10-04T23:27:08,324  INFO MobsimListenerManager:49 calling addQueueSimulationListener
2020-10-04T23:27:08,324  INFO MobsimListenerManager:53   assigned class org.matsim.core.mobsim.framework.listeners.MobsimListener to interface org.matsim.contrib.taxi.util.TaxiSimulationConsistencyChecker
2020-10-04T23:27:08,324  INFO MobsimListenerManager:53   assigned class org.matsim.core.mobsim.framework.listeners.MobsimListener to interface org.matsim.core.mobsim.framework.listeners.MobsimListener
2020-10-04T23:27:08,324  INFO MobsimListenerManager:53   assigned class org.matsim.core.mobsim.framework.listeners.MobsimListener to interface org.matsim.core.mobsim.framework.listeners.MobsimBeforeCleanupListener
2020-10-04T23:27:08,324  INFO QSimProvider:126 Added MobsimListener class org.matsim.contrib.taxi.util.TaxiSimulationConsistencyChecker
2020-10-04T23:27:08,336  INFO MobsimListenerManager:49 calling addQueueSimulationListener
2020-10-04T23:27:08,336  INFO MobsimListenerManager:53   assigned class org.matsim.core.mobsim.framework.listeners.MobsimListener to interface org.matsim.contrib.util.timeprofile.TimeProfileCollector
2020-10-04T23:27:08,336  INFO MobsimListenerManager:53   assigned class org.matsim.core.mobsim.framework.listeners.MobsimListener to interface org.matsim.core.mobsim.framework.listeners.MobsimListener
2020-10-04T23:27:08,336  INFO MobsimListenerManager:53   assigned class org.matsim.core.mobsim.framework.listeners.MobsimListener to interface org.matsim.core.mobsim.framework.listeners.MobsimBeforeSimStepListener
2020-10-04T23:27:08,336  INFO MobsimListenerManager:53   assigned class org.matsim.core.mobsim.framework.listeners.MobsimListener to interface org.matsim.core.mobsim.framework.listeners.MobsimBeforeCleanupListener
2020-10-04T23:27:08,336  INFO QSimProvider:126 Added MobsimListener class org.matsim.contrib.util.timeprofile.TimeProfileCollector
2020-10-04T23:27:08,343  INFO PopulationUtils:1194 adding scenario element for allpersons container
2020-10-04T23:27:08,343  INFO PopulationImpl:105  person # 1
2020-10-04T23:27:08,343  INFO PopulationImpl:105  person # 4
2020-10-04T23:27:08,344  INFO PopulationImpl:105  person # 16
2020-10-04T23:27:08,344  INFO VehicleUtils:328 adding scenario element for allvehicles container
2020-10-04T23:27:08,344  INFO Counter:69 [VehiclesImpl] added vehicle # 1
2020-10-04T23:27:08,344  INFO Counter:69 [VehiclesImpl] added vehicle # 2
2020-10-04T23:27:08,345  INFO Counter:69 [VehiclesImpl] added vehicle # 4
2020-10-04T23:27:08,345  INFO Counter:69 [VehiclesImpl] added vehicle # 8
2020-10-04T23:27:08,349  INFO Counter:69 [VehiclesImpl] added vehicle # 16
2020-10-04T23:27:08,351  INFO AbstractQNetsimEngine:427 Assigned 6 nodes and 6 links to QSimEngineRunner #0
2020-10-04T23:27:08,352  WARN PreplanningEngine:118 registering TripInfo.Provider for mode=taxi
2020-10-04T23:27:08,363  INFO AbstractQNetsimEngine:365 SIMULATION (QNetsimEngine) AT 00:00:00 : #links=0 #nodes=0
2020-10-04T23:27:08,374  INFO QSim:549 SIMULATION (NEW QSim) AT 00:00:00 : #Veh=31 lost=0 simT=0.0s realT=0s; (s/r): 0.0
2020-10-04T23:27:08,934  INFO AbstractQNetsimEngine:365 SIMULATION (QNetsimEngine) AT 01:00:00 : #links=0 #nodes=0
2020-10-04T23:27:08,936  INFO QSim:549 SIMULATION (NEW QSim) AT 01:00:00 : #Veh=31 lost=0 simT=3600.0s realT=0s; (s/r): Infinity
2020-10-04T23:27:09,216  INFO AbstractQNetsimEngine:365 SIMULATION (QNetsimEngine) AT 02:00:00 : #links=0 #nodes=0
2020-10-04T23:27:09,217  INFO QSim:549 SIMULATION (NEW QSim) AT 02:00:00 : #Veh=31 lost=0 simT=7200.0s realT=1s; (s/r): 7200.0
2020-10-04T23:27:09,438  INFO AbstractQNetsimEngine:365 SIMULATION (QNetsimEngine) AT 03:00:00 : #links=0 #nodes=0
2020-10-04T23:27:09,438  INFO QSim:549 SIMULATION (NEW QSim) AT 03:00:00 : #Veh=31 lost=0 simT=10800.0s realT=1s; (s/r): 10800.0
2020-10-04T23:27:09,629  INFO AbstractQNetsimEngine:365 SIMULATION (QNetsimEngine) AT 04:00:00 : #links=0 #nodes=0
2020-10-04T23:27:09,629  INFO QSim:549 SIMULATION (NEW QSim) AT 04:00:00 : #Veh=31 lost=0 simT=14400.0s realT=1s; (s/r): 14400.0
2020-10-04T23:27:09,833  INFO AbstractQNetsimEngine:365 SIMULATION (QNetsimEngine) AT 05:00:00 : #links=0 #nodes=0
2020-10-04T23:27:09,833  INFO QSim:549 SIMULATION (NEW QSim) AT 05:00:00 : #Veh=31 lost=0 simT=18000.0s realT=1s; (s/r): 18000.0
2020-10-04T23:27:10,040  INFO AbstractQNetsimEngine:365 SIMULATION (QNetsimEngine) AT 06:00:00 : #links=0 #nodes=0
2020-10-04T23:27:10,041  INFO EventsManagerImpl:135  event # 1
2020-10-04T23:27:10,043  INFO QSim:549 SIMULATION (NEW QSim) AT 06:00:00 : #Veh=31 lost=0 simT=21600.0s realT=1s; (s/r): 21600.0
2020-10-04T23:27:10,043  INFO EventsManagerImpl:135  event # 4
2020-10-04T23:27:10,044  INFO EventsManagerImpl:135  event # 16
2020-10-04T23:27:10,098  INFO EventsManagerImpl:135  event # 64
2020-10-04T23:27:10,144  INFO EventsManagerImpl:135  event # 256
2020-10-04T23:27:10,322  INFO AbstractQNetsimEngine:365 SIMULATION (QNetsimEngine) AT 07:00:00 : #links=0 #nodes=0
2020-10-04T23:27:10,322  INFO QSim:549 SIMULATION (NEW QSim) AT 07:00:00 : #Veh=11 lost=0 simT=25200.0s realT=2s; (s/r): 12600.0
2020-10-04T23:27:10,539  INFO AbstractQNetsimEngine:365 SIMULATION (QNetsimEngine) AT 08:00:00 : #links=0 #nodes=0
2020-10-04T23:27:10,539  INFO QSim:549 SIMULATION (NEW QSim) AT 08:00:00 : #Veh=11 lost=0 simT=28800.0s realT=2s; (s/r): 14400.0
2020-10-04T23:27:10,752  INFO AbstractQNetsimEngine:365 SIMULATION (QNetsimEngine) AT 09:00:00 : #links=0 #nodes=0
2020-10-04T23:27:10,752  INFO QSim:549 SIMULATION (NEW QSim) AT 09:00:00 : #Veh=11 lost=0 simT=32400.0s realT=2s; (s/r): 16200.0
2020-10-04T23:27:10,938  INFO AbstractQNetsimEngine:365 SIMULATION (QNetsimEngine) AT 10:00:00 : #links=0 #nodes=0
2020-10-04T23:27:10,938  INFO QSim:549 SIMULATION (NEW QSim) AT 10:00:00 : #Veh=11 lost=0 simT=36000.0s realT=2s; (s/r): 18000.0
2020-10-04T23:27:11,137  INFO AbstractQNetsimEngine:365 SIMULATION (QNetsimEngine) AT 11:00:00 : #links=0 #nodes=0
2020-10-04T23:27:11,137  INFO QSim:549 SIMULATION (NEW QSim) AT 11:00:00 : #Veh=11 lost=0 simT=39600.0s realT=2s; (s/r): 19800.0
2020-10-04T23:27:11,339  INFO AbstractQNetsimEngine:365 SIMULATION (QNetsimEngine) AT 12:00:00 : #links=0 #nodes=0
2020-10-04T23:27:11,339  INFO QSim:549 SIMULATION (NEW QSim) AT 12:00:00 : #Veh=11 lost=0 simT=43200.0s realT=3s; (s/r): 14400.0
2020-10-04T23:27:11,532  INFO AbstractQNetsimEngine:365 SIMULATION (QNetsimEngine) AT 13:00:00 : #links=0 #nodes=0
2020-10-04T23:27:11,532  INFO QSim:549 SIMULATION (NEW QSim) AT 13:00:00 : #Veh=11 lost=0 simT=46800.0s realT=3s; (s/r): 15600.0
2020-10-04T23:27:11,734  INFO AbstractQNetsimEngine:365 SIMULATION (QNetsimEngine) AT 14:00:00 : #links=0 #nodes=0
2020-10-04T23:27:11,734  INFO QSim:549 SIMULATION (NEW QSim) AT 14:00:00 : #Veh=11 lost=0 simT=50400.0s realT=3s; (s/r): 16800.0
2020-10-04T23:27:11,932  INFO AbstractQNetsimEngine:365 SIMULATION (QNetsimEngine) AT 15:00:00 : #links=0 #nodes=0
2020-10-04T23:27:11,932  INFO QSim:549 SIMULATION (NEW QSim) AT 15:00:00 : #Veh=11 lost=0 simT=54000.0s realT=3s; (s/r): 18000.0
2020-10-04T23:27:12,133  INFO AbstractQNetsimEngine:365 SIMULATION (QNetsimEngine) AT 16:00:00 : #links=0 #nodes=0
2020-10-04T23:27:12,133  INFO QSim:549 SIMULATION (NEW QSim) AT 16:00:00 : #Veh=11 lost=0 simT=57600.0s realT=3s; (s/r): 19200.0
2020-10-04T23:27:12,331  INFO AbstractQNetsimEngine:365 SIMULATION (QNetsimEngine) AT 17:00:00 : #links=0 #nodes=0
2020-10-04T23:27:12,332  INFO QSim:549 SIMULATION (NEW QSim) AT 17:00:00 : #Veh=11 lost=0 simT=61200.0s realT=4s; (s/r): 15300.0
2020-10-04T23:27:12,523  INFO AbstractQNetsimEngine:365 SIMULATION (QNetsimEngine) AT 18:00:00 : #links=0 #nodes=0
2020-10-04T23:27:12,524  INFO QSim:549 SIMULATION (NEW QSim) AT 18:00:00 : #Veh=11 lost=0 simT=64800.0s realT=4s; (s/r): 16200.0
2020-10-04T23:27:12,711  INFO AbstractQNetsimEngine:365 SIMULATION (QNetsimEngine) AT 19:00:00 : #links=0 #nodes=0
2020-10-04T23:27:12,711  INFO QSim:549 SIMULATION (NEW QSim) AT 19:00:00 : #Veh=11 lost=0 simT=68400.0s realT=4s; (s/r): 17100.0
2020-10-04T23:27:12,909  INFO AbstractQNetsimEngine:365 SIMULATION (QNetsimEngine) AT 20:00:00 : #links=0 #nodes=0
2020-10-04T23:27:12,909  INFO QSim:549 SIMULATION (NEW QSim) AT 20:00:00 : #Veh=11 lost=0 simT=72000.0s realT=4s; (s/r): 18000.0
2020-10-04T23:27:13,141  INFO AbstractQNetsimEngine:365 SIMULATION (QNetsimEngine) AT 21:00:00 : #links=0 #nodes=0
2020-10-04T23:27:13,141  INFO QSim:549 SIMULATION (NEW QSim) AT 21:00:00 : #Veh=11 lost=0 simT=75600.0s realT=4s; (s/r): 18900.0
2020-10-04T23:27:13,398  INFO AbstractQNetsimEngine:365 SIMULATION (QNetsimEngine) AT 22:00:00 : #links=0 #nodes=0
2020-10-04T23:27:13,399  INFO QSim:549 SIMULATION (NEW QSim) AT 22:00:00 : #Veh=11 lost=0 simT=79200.0s realT=5s; (s/r): 15840.0
2020-10-04T23:27:13,614  INFO AbstractQNetsimEngine:365 SIMULATION (QNetsimEngine) AT 23:00:00 : #links=0 #nodes=0
2020-10-04T23:27:13,614  INFO QSim:549 SIMULATION (NEW QSim) AT 23:00:00 : #Veh=11 lost=0 simT=82800.0s realT=5s; (s/r): 16560.0
2020-10-04T23:27:13,800  INFO AbstractQNetsimEngine:365 SIMULATION (QNetsimEngine) AT 24:00:00 : #links=0 #nodes=0
2020-10-04T23:27:13,800  INFO QSim:549 SIMULATION (NEW QSim) AT 24:00:00 : #Veh=11 lost=0 simT=86400.0s realT=5s; (s/r): 17280.0
2020-10-04T23:27:13,987  INFO AbstractQNetsimEngine:365 SIMULATION (QNetsimEngine) AT 25:00:00 : #links=0 #nodes=0
2020-10-04T23:27:13,987  INFO QSim:549 SIMULATION (NEW QSim) AT 25:00:00 : #Veh=11 lost=0 simT=90000.0s realT=5s; (s/r): 18000.0
2020-10-04T23:27:14,169  INFO AbstractQNetsimEngine:365 SIMULATION (QNetsimEngine) AT 26:00:00 : #links=0 #nodes=0
2020-10-04T23:27:14,169  INFO QSim:549 SIMULATION (NEW QSim) AT 26:00:00 : #Veh=11 lost=0 simT=93600.0s realT=5s; (s/r): 18720.0
2020-10-04T23:27:14,359  INFO AbstractQNetsimEngine:365 SIMULATION (QNetsimEngine) AT 27:00:00 : #links=0 #nodes=0
2020-10-04T23:27:14,359  INFO QSim:549 SIMULATION (NEW QSim) AT 27:00:00 : #Veh=11 lost=0 simT=97200.0s realT=6s; (s/r): 16200.0
2020-10-04T23:27:14,547  INFO AbstractQNetsimEngine:365 SIMULATION (QNetsimEngine) AT 28:00:00 : #links=0 #nodes=0
2020-10-04T23:27:14,548  INFO QSim:549 SIMULATION (NEW QSim) AT 28:00:00 : #Veh=11 lost=0 simT=100800.0s realT=6s; (s/r): 16800.0
2020-10-04T23:27:14,751  INFO AbstractQNetsimEngine:365 SIMULATION (QNetsimEngine) AT 29:00:00 : #links=0 #nodes=0
2020-10-04T23:27:14,753  INFO QSim:549 SIMULATION (NEW QSim) AT 29:00:00 : #Veh=0 lost=0 simT=104400.0s realT=6s; (s/r): 17400.0
2020-10-04T23:27:15,714  INFO AbstractController$9:221 ### ITERATION 0 fires after mobsim event
2020-10-04T23:27:15,714  INFO ControlerListenerManagerImpl:248 calling notifyAfterMobsim on org.matsim.analysis.LegTimesControlerListener
2020-10-04T23:27:15,715  INFO Gbl:191 Thread performance: Thread=class org.matsim.core.events.SimStepParallelEventsManagerImpl$ProcessEventsRunnable0  cpu-time=1.203125sec
2020-10-04T23:27:15,722  INFO LegTimesControlerListener:50 [0] average trip (probably: leg) duration is: 415 seconds = 00:06:55
2020-10-04T23:27:15,722  INFO ControlerListenerManagerImpl:248 calling notifyAfterMobsim on org.matsim.core.scoring.EventsToActivities$1
2020-10-04T23:27:15,724  INFO ControlerListenerManagerImpl:251 [it.0] all ControlerAfterMobsimListeners called.
2020-10-04T23:27:15,725  INFO AbstractController$4:150 ### ITERATION 0 fires scoring event
2020-10-04T23:27:15,725  INFO ControlerListenerManagerImpl:183 calling notifyScoring on org.matsim.core.scoring.PlansScoringImpl
2020-10-04T23:27:15,729  INFO NewScoreAssignerImpl:57 it: 0 msaStart: null
2020-10-04T23:27:15,730  INFO ControlerListenerManagerImpl:194 [it.0] all ControlerScoringListeners called.
2020-10-04T23:27:15,731  INFO AbstractController$5:158 ### ITERATION 0 fires iteration end event
2020-10-04T23:27:15,731  INFO ControlerListenerManagerImpl:160 calling notifyIterationEnds on org.matsim.core.controler.corelisteners.EventsHandlingImpl
2020-10-04T23:27:15,732  INFO EventsManagerImpl:175 removing Event-Handler: org.matsim.core.events.algorithms.EventWriterXML
2020-10-04T23:27:15,732  INFO EventsManagerImpl:175 removing Event-Handler: org.matsim.core.events.algorithms.EventWriterXML
2020-10-04T23:27:15,732  INFO ControlerListenerManagerImpl:160 calling notifyIterationEnds on org.matsim.core.scoring.PlansScoringImpl
2020-10-04T23:27:15,732  INFO ControlerListenerManagerImpl:167 calling notifyIterationEnds on org.matsim.counts.CountsControlerListener
2020-10-04T23:27:15,733  INFO ControlerListenerManagerImpl:167 calling notifyIterationEnds on org.matsim.analysis.ModeStatsControlerListener
2020-10-04T23:27:15,734  INFO ModeStatsControlerListener:142 Mode shares over all 20.0 trips found. MainModeIdentifier: class org.matsim.core.router.RoutingModeMainModeIdentifier
2020-10-04T23:27:15,735  INFO ModeStatsControlerListener:149 -- mode share of mode bike = 0.0
2020-10-04T23:27:15,736  INFO ModeStatsControlerListener:149 -- mode share of mode car = 0.5
2020-10-04T23:27:15,736  INFO ModeStatsControlerListener:149 -- mode share of mode other = 0.0
2020-10-04T23:27:15,737  INFO ModeStatsControlerListener:149 -- mode share of mode pt = 0.0
2020-10-04T23:27:15,737  INFO ModeStatsControlerListener:149 -- mode share of mode ride = 0.0
2020-10-04T23:27:15,737  INFO ModeStatsControlerListener:149 -- mode share of mode taxi = 0.5
2020-10-04T23:27:15,737  INFO ModeStatsControlerListener:149 -- mode share of mode walk = 0.0
2020-10-04T23:27:15,738  INFO ControlerListenerManagerImpl:167 calling notifyIterationEnds on org.matsim.analysis.ScoreStatsControlerListener
2020-10-04T23:27:15,738  INFO ScoreStatsControlerListener:181 -- avg. score of the executed plan of each agent: 131.53663846761054
2020-10-04T23:27:15,738  INFO ScoreStatsControlerListener:182 -- avg. score of the worst plan of each agent: 131.53663846761054
2020-10-04T23:27:15,739  INFO ScoreStatsControlerListener:183 -- avg. of the avg. plan score per agent: 131.53663846761054
2020-10-04T23:27:15,739  INFO ScoreStatsControlerListener:184 -- avg. score of the best plan of each agent: 131.53663846761054
2020-10-04T23:27:15,744  INFO ControlerListenerManagerImpl:167 calling notifyIterationEnds on org.matsim.analysis.IterationTravelStatsControlerListener
2020-10-04T23:27:15,763  INFO TravelDistanceStats:143 -- average leg distance per plan (executed plans only): 15000.5 meters
2020-10-04T23:27:15,763  INFO TravelDistanceStats:144 average leg distance per Person (executed plans only): 15000.5 meters (statistic on all 20 legs which have a finite distance)
2020-10-04T23:27:15,763  INFO TravelDistanceStats:145 -- average trip distance per plan (executed plans only): 15000.5 meters
2020-10-04T23:27:15,763  INFO TravelDistanceStats:146 average trip distance per Person (executed plans only): 15000.5 meters (statistic on all 20 trips which have a finite distance)
2020-10-04T23:27:15,763  INFO TravelDistanceStats:147 (TravelDistanceStats takes an average over all legs where the simulation reports travelled (network) distances
2020-10-04T23:27:15,763  INFO TravelDistanceStats:148 (and teleported legs whose route contains a distance.)
2020-10-04T23:27:15,795  INFO ControlerListenerManagerImpl:167 calling notifyIterationEnds on org.matsim.analysis.LegHistogramListener
2020-10-04T23:27:15,814  INFO LegHistogramListener:72 number of legs:	20	100%
2020-10-04T23:27:15,816  INFO LegHistogramListener:79 number of car legs:	10	50.0%
2020-10-04T23:27:15,817  INFO LegHistogramListener:79 number of taxi legs:	10	50.0%
2020-10-04T23:27:16,319  INFO ControlerListenerManagerImpl:167 calling notifyIterationEnds on org.matsim.analysis.LinkStatsControlerListener
2020-10-04T23:27:16,319  INFO ControlerListenerManagerImpl:171 [it.0] all ControlerIterationEndsListeners called.
2020-10-04T23:27:16,773  INFO AbstractController:168 ### ITERATION 0 ENDS
2020-10-04T23:27:16,773  INFO AbstractController:169 ###################################################
2020-10-04T23:27:16,773  INFO MatsimRuntimeModifications:79 S H U T D O W N   ---   start shutdown.
2020-10-04T23:27:16,773  INFO ControlerListenerManagerImpl:121 calling notifyShutdown on org.matsim.core.controler.corelisteners.EventsHandlingImpl
2020-10-04T23:27:16,773  INFO ControlerListenerManagerImpl:121 calling notifyShutdown on org.matsim.core.controler.corelisteners.DumpDataAtEndImpl
2020-10-04T23:27:16,775  WARN ObjectAttributesConverter:77 No AttributeConverter found for class java.util.Collections$UnmodifiableMap. Not all attribute values can be converted.
2020-10-04T23:27:16,776  INFO Counter:69 [PopulationWriter] dumped person # 1
2020-10-04T23:27:16,777  INFO Counter:69 [PopulationWriter] dumped person # 2
2020-10-04T23:27:16,777  INFO Counter:69 [PopulationWriter] dumped person # 4
2020-10-04T23:27:16,777  INFO Counter:69 [PopulationWriter] dumped person # 8
2020-10-04T23:27:16,778  INFO Counter:69 [PopulationWriter] dumped person # 16
2020-10-04T23:27:16,779  INFO PopulationWriter:144 Population written to: output/pigou_mixed_traffic/output_plans.xml.gz
2020-10-04T23:27:16,780  INFO Counter:74 [PopulationWriter] dumped person # 20
2020-10-04T23:27:16,782  INFO NetworkWriter:69 Writing network to file: output/pigou_mixed_traffic/output_network.xml.gz...
2020-10-04T23:27:16,786  INFO NetworkWriter:72 done.
2020-10-04T23:27:16,795  INFO Config:587 setting context to [file:/C:/Users/Admin/Desktop/Pigou's%20Example/Pigou's%20Example/]
2020-10-04T23:27:16,801  INFO Config:587 setting context to [file:/C:/Users/Admin/Desktop/Pigou's%20Example/Pigou's%20Example/]
2020-10-04T23:27:16,811  INFO Config:587 setting context to [file:/C:/Users/Admin/Desktop/Pigou's%20Example/Pigou's%20Example/]
2020-10-04T23:27:16,817  INFO Config:587 setting context to [file:/C:/Users/Admin/Desktop/Pigou's%20Example/Pigou's%20Example/]
2020-10-04T23:27:16,828  INFO Config:587 setting context to [file:/C:/Users/Admin/Desktop/Pigou's%20Example/Pigou's%20Example/]
2020-10-04T23:27:16,833  INFO Config:587 setting context to [file:/C:/Users/Admin/Desktop/Pigou's%20Example/Pigou's%20Example/]
2020-10-04T23:27:16,838  INFO Config:587 setting context to [file:/C:/Users/Admin/Desktop/Pigou's%20Example/Pigou's%20Example/]
2020-10-04T23:27:16,843  INFO Config:587 setting context to [file:/C:/Users/Admin/Desktop/Pigou's%20Example/Pigou's%20Example/]
2020-10-04T23:27:16,852  INFO Config:587 setting context to [file:/C:/Users/Admin/Desktop/Pigou's%20Example/Pigou's%20Example/]
2020-10-04T23:27:16,859  INFO Config:587 setting context to [file:/C:/Users/Admin/Desktop/Pigou's%20Example/Pigou's%20Example/]
2020-10-04T23:27:16,889  INFO Config:587 setting context to [file:/C:/Users/Admin/Desktop/Pigou's%20Example/Pigou's%20Example/]
2020-10-04T23:27:16,897  INFO Config:587 setting context to [file:/C:/Users/Admin/Desktop/Pigou's%20Example/Pigou's%20Example/]
2020-10-04T23:27:16,901  INFO Config:587 setting context to [file:/C:/Users/Admin/Desktop/Pigou's%20Example/Pigou's%20Example/]
2020-10-04T23:27:16,904  INFO Config:587 setting context to [file:/C:/Users/Admin/Desktop/Pigou's%20Example/Pigou's%20Example/]
2020-10-04T23:27:16,907  INFO Config:587 setting context to [file:/C:/Users/Admin/Desktop/Pigou's%20Example/Pigou's%20Example/]
2020-10-04T23:27:16,920  INFO Config:587 setting context to [file:/C:/Users/Admin/Desktop/Pigou's%20Example/Pigou's%20Example/]
2020-10-04T23:27:16,923  INFO Config:587 setting context to [file:/C:/Users/Admin/Desktop/Pigou's%20Example/Pigou's%20Example/]
2020-10-04T23:27:16,927  INFO Config:587 setting context to [file:/C:/Users/Admin/Desktop/Pigou's%20Example/Pigou's%20Example/]
2020-10-04T23:27:16,931  INFO Config:587 setting context to [file:/C:/Users/Admin/Desktop/Pigou's%20Example/Pigou's%20Example/]
2020-10-04T23:27:16,943  INFO Config:587 setting context to [file:/C:/Users/Admin/Desktop/Pigou's%20Example/Pigou's%20Example/]
2020-10-04T23:27:16,946  INFO Config:587 setting context to [file:/C:/Users/Admin/Desktop/Pigou's%20Example/Pigou's%20Example/]
2020-10-04T23:27:16,955  INFO Config:587 setting context to [file:/C:/Users/Admin/Desktop/Pigou's%20Example/Pigou's%20Example/]
2020-10-04T23:27:16,959  INFO Config:587 setting context to [file:/C:/Users/Admin/Desktop/Pigou's%20Example/Pigou's%20Example/]
2020-10-04T23:27:16,965  INFO Config:587 setting context to [file:/C:/Users/Admin/Desktop/Pigou's%20Example/Pigou's%20Example/]
2020-10-04T23:27:16,969  INFO Config:587 setting context to [file:/C:/Users/Admin/Desktop/Pigou's%20Example/Pigou's%20Example/]
2020-10-04T23:27:16,972  INFO Config:587 setting context to [file:/C:/Users/Admin/Desktop/Pigou's%20Example/Pigou's%20Example/]
2020-10-04T23:27:16,976  INFO Config:587 setting context to [file:/C:/Users/Admin/Desktop/Pigou's%20Example/Pigou's%20Example/]
2020-10-04T23:27:16,987  INFO MatsimVehicleWriter:54 about to write vehicles to: output/pigou_mixed_traffic/output_vehicles.xml.gz
2020-10-04T23:27:16,987  INFO VehicleWriterV2:63 about to write vehicles to: output/pigou_mixed_traffic/output_vehicles.xml.gz
2020-10-04T23:27:16,992  INFO MatsimVehicleWriter:54 about to write vehicles to: output/pigou_mixed_traffic/output_allVehicles.xml.gz
2020-10-04T23:27:16,993  INFO VehicleWriterV2:63 about to write vehicles to: output/pigou_mixed_traffic/output_allVehicles.xml.gz
2020-10-04T23:27:16,996  INFO HouseholdsWriterV10:66 about to write  households to: output/pigou_mixed_traffic/output_households.xml.gz
2020-10-04T23:27:16,997  INFO Counter:74 [HouseholdsWriter] wrote household # 0
2020-10-04T23:27:17,017  INFO ControlerListenerManagerImpl:126 calling notifyShutdown on org.matsim.analysis.ModeStatsControlerListener
2020-10-04T23:27:17,017  INFO ControlerListenerManagerImpl:126 calling notifyShutdown on org.matsim.analysis.ScoreStatsControlerListener
2020-10-04T23:27:17,017  INFO ControlerListenerManagerImpl:126 calling notifyShutdown on org.matsim.analysis.IterationTravelStatsControlerListener
2020-10-04T23:27:17,279  INFO IterationTravelStatsControlerListener:100 Writing all Person and Attributes to personscsv
2020-10-04T23:27:17,281  INFO IterationTravelStatsControlerListener:134 ...done
2020-10-04T23:27:17,281  INFO ControlerListenerManagerImpl:126 calling notifyShutdown on org.matsim.contrib.taxi.util.stats.TaxiStatsDumper
2020-10-04T23:27:17,282  INFO ControlerListenerManagerImpl:129 all ControlerShutdownListeners called.
2020-10-04T23:27:17,282  INFO MatsimRuntimeModifications:102 S H U T D O W N   ---   shutdown completed.
2020-10-04T23:27:17,282  INFO OutputDirectoryLogging:170 closing the logfile, i.e. messages sent to the logger after this message are not written to the logfile.
